16
# CELL(GENH):   25.00000    0.00000    0.00000    0.00000   25.00000    0.00000    0.00000    0.00000   25.00000 positions{angstrom} cell{angstrom}
         C     1.1885495000e+01     1.1186270000e+01     1.2318830000e+01
         C     1.3380565000e+01     1.1386550000e+01     1.2036720000e+01
         C     1.2959135000e+01     1.3726540000e+01     1.3021680000e+01
         C     1.1784685000e+01     1.3742070000e+01     1.2034310000e+01
         C     1.3953935000e+01     1.2609750000e+01     1.2738530000e+01
         C     1.1049295000e+01     1.2410750000e+01     1.1973390000e+01
         H     1.3978255000e+01     1.0511830000e+01     1.2314920000e+01
         H     1.3536465000e+01     1.1539340000e+01     1.0955520000e+01
         H     1.1733985000e+01     1.0993640000e+01     1.3394270000e+01
         H     1.2581085000e+01     1.3560420000e+01     1.4044480000e+01
         H     1.3499195000e+01     1.4679300000e+01     1.3042600000e+01
         H     1.2158695000e+01     1.3944240000e+01     1.1016500000e+01
         H     1.1060135000e+01     1.4531790000e+01     1.2260220000e+01
         H     1.1473495000e+01     1.0320700000e+01     1.1789000000e+01
         O     1.5126255000e+01     1.2689300000e+01     1.3052980000e+01
         O     9.8737450000e+00     1.2330690000e+01     1.1671220000e+01
