384
# CELL(GENH):   14.78000    0.00000    0.00000    0.00000   18.84000    0.00000    0.00000    0.00000   13.62000 positions{angstrom} cell{angstrom}
         C     6.9463468800e+00     1.3248168500e+00     6.7664582800e+00
         C     6.3704020100e+00     4.2621627000e-01     8.5894469000e-01
         C     5.7262390000e-01     8.9722475000e-01     5.9079062900e+00
         C     6.8173761300e+00     8.5227752300e+00     9.0209378000e-01
         C     1.0195979900e+00     8.9937837300e+00     5.9510553400e+00
         C     4.4365317000e-01     8.0951831600e+00     4.3541790000e-02
         C     4.1386531200e+00     6.0348166700e+00     6.7664582800e+00
         C     6.9463468300e+00     3.3851832000e+00     3.3614581800e+00
         C     4.1386530200e+00     8.0951831400e+00     3.3614584000e+00
         C     3.2513469200e+00     3.3851833000e+00     4.3541720000e-02
         C     4.4365312000e-01     6.0348168000e+00     3.4485418100e+00
         C     3.2513469400e+00     1.3248168300e+00     3.4485416600e+00
         C     4.7145979600e+00     5.1362162400e+00     8.5894466000e-01
         C     6.3704020400e+00     4.2837837000e+00     4.2639447000e+00
         C     4.7145980600e+00     8.9937837000e+00     4.2639447400e+00
         C     2.6754020400e+00     4.2837837300e+00     5.9510553800e+00
         C     1.0195979600e+00     5.1362163000e+00     2.5460553200e+00
         C     2.6754019400e+00     4.2621627000e-01     2.5460552900e+00
         C     3.1223761500e+00     5.6072245600e+00     5.9079063700e+00
         C     5.7262383000e-01     3.8127753100e+00     2.5029062400e+00
         C     3.1223760400e+00     8.5227752600e+00     2.5029064300e+00
         C     4.2676238800e+00     3.8127754200e+00     9.0209362000e-01
         C     6.8173761400e+00     5.6072246700e+00     4.3070937400e+00
         C     4.2676239400e+00     8.9722472000e-01     4.3070936500e+00
         C     6.9463468800e+00     1.3248168500e+00     1.3576458280e+01
         C     6.3704020100e+00     4.2621627000e-01     7.6689446900e+00
         C     5.7262390000e-01     8.9722475000e-01     1.2717906290e+01
         C     6.8173761300e+00     8.5227752300e+00     7.7120937800e+00
         C     1.0195979900e+00     8.9937837300e+00     1.2761055340e+01
         C     4.4365317000e-01     8.0951831600e+00     6.8535417900e+00
         C     4.1386531200e+00     6.0348166700e+00     1.3576458280e+01
         C     6.9463468300e+00     3.3851832000e+00     1.0171458180e+01
         C     4.1386530200e+00     8.0951831400e+00     1.0171458400e+01
         C     3.2513469200e+00     3.3851833000e+00     6.8535417200e+00
         C     4.4365312000e-01     6.0348168000e+00     1.0258541810e+01
         C     3.2513469400e+00     1.3248168300e+00     1.0258541660e+01
         C     4.7145979600e+00     5.1362162400e+00     7.6689446600e+00
         C     6.3704020400e+00     4.2837837000e+00     1.1073944700e+01
         C     4.7145980600e+00     8.9937837000e+00     1.1073944740e+01
         C     2.6754020400e+00     4.2837837300e+00     1.2761055380e+01
         C     1.0195979600e+00     5.1362163000e+00     9.3560553200e+00
         C     2.6754019400e+00     4.2621627000e-01     9.3560552900e+00
         C     3.1223761500e+00     5.6072245600e+00     1.2717906370e+01
         C     5.7262383000e-01     3.8127753100e+00     9.3129062400e+00
         C     3.1223760400e+00     8.5227752600e+00     9.3129064300e+00
         C     4.2676238800e+00     3.8127754200e+00     7.7120936200e+00
         C     6.8173761400e+00     5.6072246700e+00     1.1117093740e+01
         C     4.2676239400e+00     8.9722472000e-01     1.1117093650e+01
         C     6.9463468800e+00     1.0744816850e+01     6.7664582800e+00
         C     6.3704020100e+00     9.8462162700e+00     8.5894469000e-01
         C     5.7262390000e-01     1.0317224750e+01     5.9079062900e+00
         C     6.8173761300e+00     1.7942775230e+01     9.0209378000e-01
         C     1.0195979900e+00     1.8413783730e+01     5.9510553400e+00
         C     4.4365317000e-01     1.7515183160e+01     4.3541790000e-02
         C     4.1386531200e+00     1.5454816670e+01     6.7664582800e+00
         C     6.9463468300e+00     1.2805183200e+01     3.3614581800e+00
         C     4.1386530200e+00     1.7515183140e+01     3.3614584000e+00
         C     3.2513469200e+00     1.2805183300e+01     4.3541720000e-02
         C     4.4365312000e-01     1.5454816800e+01     3.4485418100e+00
         C     3.2513469400e+00     1.0744816830e+01     3.4485416600e+00
         C     4.7145979600e+00     1.4556216240e+01     8.5894466000e-01
         C     6.3704020400e+00     1.3703783700e+01     4.2639447000e+00
         C     4.7145980600e+00     1.8413783700e+01     4.2639447400e+00
         C     2.6754020400e+00     1.3703783730e+01     5.9510553800e+00
         C     1.0195979600e+00     1.4556216300e+01     2.5460553200e+00
         C     2.6754019400e+00     9.8462162700e+00     2.5460552900e+00
         C     3.1223761500e+00     1.5027224560e+01     5.9079063700e+00
         C     5.7262383000e-01     1.3232775310e+01     2.5029062400e+00
         C     3.1223760400e+00     1.7942775260e+01     2.5029064300e+00
         C     4.2676238800e+00     1.3232775420e+01     9.0209362000e-01
         C     6.8173761400e+00     1.5027224670e+01     4.3070937400e+00
         C     4.2676239400e+00     1.0317224720e+01     4.3070936500e+00
         C     6.9463468800e+00     1.0744816850e+01     1.3576458280e+01
         C     6.3704020100e+00     9.8462162700e+00     7.6689446900e+00
         C     5.7262390000e-01     1.0317224750e+01     1.2717906290e+01
         C     6.8173761300e+00     1.7942775230e+01     7.7120937800e+00
         C     1.0195979900e+00     1.8413783730e+01     1.2761055340e+01
         C     4.4365317000e-01     1.7515183160e+01     6.8535417900e+00
         C     4.1386531200e+00     1.5454816670e+01     1.3576458280e+01
         C     6.9463468300e+00     1.2805183200e+01     1.0171458180e+01
         C     4.1386530200e+00     1.7515183140e+01     1.0171458400e+01
         C     3.2513469200e+00     1.2805183300e+01     6.8535417200e+00
         C     4.4365312000e-01     1.5454816800e+01     1.0258541810e+01
         C     3.2513469400e+00     1.0744816830e+01     1.0258541660e+01
         C     4.7145979600e+00     1.4556216240e+01     7.6689446600e+00
         C     6.3704020400e+00     1.3703783700e+01     1.1073944700e+01
         C     4.7145980600e+00     1.8413783700e+01     1.1073944740e+01
         C     2.6754020400e+00     1.3703783730e+01     1.2761055380e+01
         C     1.0195979600e+00     1.4556216300e+01     9.3560553200e+00
         C     2.6754019400e+00     9.8462162700e+00     9.3560552900e+00
         C     3.1223761500e+00     1.5027224560e+01     1.2717906370e+01
         C     5.7262383000e-01     1.3232775310e+01     9.3129062400e+00
         C     3.1223760400e+00     1.7942775260e+01     9.3129064300e+00
         C     4.2676238800e+00     1.3232775420e+01     7.7120936200e+00
         C     6.8173761400e+00     1.5027224670e+01     1.1117093740e+01
         C     4.2676239400e+00     1.0317224720e+01     1.1117093650e+01
         C     1.4336346880e+01     1.3248168500e+00     6.7664582800e+00
         C     1.3760402010e+01     4.2621627000e-01     8.5894469000e-01
         C     7.9626239000e+00     8.9722475000e-01     5.9079062900e+00
         C     1.4207376130e+01     8.5227752300e+00     9.0209378000e-01
         C     8.4095979900e+00     8.9937837300e+00     5.9510553400e+00
         C     7.8336531700e+00     8.0951831600e+00     4.3541790000e-02
         C     1.1528653120e+01     6.0348166700e+00     6.7664582800e+00
         C     1.4336346830e+01     3.3851832000e+00     3.3614581800e+00
         C     1.1528653020e+01     8.0951831400e+00     3.3614584000e+00
         C     1.0641346920e+01     3.3851833000e+00     4.3541720000e-02
         C     7.8336531200e+00     6.0348168000e+00     3.4485418100e+00
         C     1.0641346940e+01     1.3248168300e+00     3.4485416600e+00
         C     1.2104597960e+01     5.1362162400e+00     8.5894466000e-01
         C     1.3760402040e+01     4.2837837000e+00     4.2639447000e+00
         C     1.2104598060e+01     8.9937837000e+00     4.2639447400e+00
         C     1.0065402040e+01     4.2837837300e+00     5.9510553800e+00
         C     8.4095979600e+00     5.1362163000e+00     2.5460553200e+00
         C     1.0065401940e+01     4.2621627000e-01     2.5460552900e+00
         C     1.0512376150e+01     5.6072245600e+00     5.9079063700e+00
         C     7.9626238300e+00     3.8127753100e+00     2.5029062400e+00
         C     1.0512376040e+01     8.5227752600e+00     2.5029064300e+00
         C     1.1657623880e+01     3.8127754200e+00     9.0209362000e-01
         C     1.4207376140e+01     5.6072246700e+00     4.3070937400e+00
         C     1.1657623940e+01     8.9722472000e-01     4.3070936500e+00
         C     1.4336346880e+01     1.3248168500e+00     1.3576458280e+01
         C     1.3760402010e+01     4.2621627000e-01     7.6689446900e+00
         C     7.9626239000e+00     8.9722475000e-01     1.2717906290e+01
         C     1.4207376130e+01     8.5227752300e+00     7.7120937800e+00
         C     8.4095979900e+00     8.9937837300e+00     1.2761055340e+01
         C     7.8336531700e+00     8.0951831600e+00     6.8535417900e+00
         C     1.1528653120e+01     6.0348166700e+00     1.3576458280e+01
         C     1.4336346830e+01     3.3851832000e+00     1.0171458180e+01
         C     1.1528653020e+01     8.0951831400e+00     1.0171458400e+01
         C     1.0641346920e+01     3.3851833000e+00     6.8535417200e+00
         C     7.8336531200e+00     6.0348168000e+00     1.0258541810e+01
         C     1.0641346940e+01     1.3248168300e+00     1.0258541660e+01
         C     1.2104597960e+01     5.1362162400e+00     7.6689446600e+00
         C     1.3760402040e+01     4.2837837000e+00     1.1073944700e+01
         C     1.2104598060e+01     8.9937837000e+00     1.1073944740e+01
         C     1.0065402040e+01     4.2837837300e+00     1.2761055380e+01
         C     8.4095979600e+00     5.1362163000e+00     9.3560553200e+00
         C     1.0065401940e+01     4.2621627000e-01     9.3560552900e+00
         C     1.0512376150e+01     5.6072245600e+00     1.2717906370e+01
         C     7.9626238300e+00     3.8127753100e+00     9.3129062400e+00
         C     1.0512376040e+01     8.5227752600e+00     9.3129064300e+00
         C     1.1657623880e+01     3.8127754200e+00     7.7120936200e+00
         C     1.4207376140e+01     5.6072246700e+00     1.1117093740e+01
         C     1.1657623940e+01     8.9722472000e-01     1.1117093650e+01
         C     1.4336346880e+01     1.0744816850e+01     6.7664582800e+00
         C     1.3760402010e+01     9.8462162700e+00     8.5894469000e-01
         C     7.9626239000e+00     1.0317224750e+01     5.9079062900e+00
         C     1.4207376130e+01     1.7942775230e+01     9.0209378000e-01
         C     8.4095979900e+00     1.8413783730e+01     5.9510553400e+00
         C     7.8336531700e+00     1.7515183160e+01     4.3541790000e-02
         C     1.1528653120e+01     1.5454816670e+01     6.7664582800e+00
         C     1.4336346830e+01     1.2805183200e+01     3.3614581800e+00
         C     1.1528653020e+01     1.7515183140e+01     3.3614584000e+00
         C     1.0641346920e+01     1.2805183300e+01     4.3541720000e-02
         C     7.8336531200e+00     1.5454816800e+01     3.4485418100e+00
         C     1.0641346940e+01     1.0744816830e+01     3.4485416600e+00
         C     1.2104597960e+01     1.4556216240e+01     8.5894466000e-01
         C     1.3760402040e+01     1.3703783700e+01     4.2639447000e+00
         C     1.2104598060e+01     1.8413783700e+01     4.2639447400e+00
         C     1.0065402040e+01     1.3703783730e+01     5.9510553800e+00
         C     8.4095979600e+00     1.4556216300e+01     2.5460553200e+00
         C     1.0065401940e+01     9.8462162700e+00     2.5460552900e+00
         C     1.0512376150e+01     1.5027224560e+01     5.9079063700e+00
         C     7.9626238300e+00     1.3232775310e+01     2.5029062400e+00
         C     1.0512376040e+01     1.7942775260e+01     2.5029064300e+00
         C     1.1657623880e+01     1.3232775420e+01     9.0209362000e-01
         C     1.4207376140e+01     1.5027224670e+01     4.3070937400e+00
         C     1.1657623940e+01     1.0317224720e+01     4.3070936500e+00
         C     1.4336346880e+01     1.0744816850e+01     1.3576458280e+01
         C     1.3760402010e+01     9.8462162700e+00     7.6689446900e+00
         C     7.9626239000e+00     1.0317224750e+01     1.2717906290e+01
         C     1.4207376130e+01     1.7942775230e+01     7.7120937800e+00
         C     8.4095979900e+00     1.8413783730e+01     1.2761055340e+01
         C     7.8336531700e+00     1.7515183160e+01     6.8535417900e+00
         C     1.1528653120e+01     1.5454816670e+01     1.3576458280e+01
         C     1.4336346830e+01     1.2805183200e+01     1.0171458180e+01
         C     1.1528653020e+01     1.7515183140e+01     1.0171458400e+01
         C     1.0641346920e+01     1.2805183300e+01     6.8535417200e+00
         C     7.8336531200e+00     1.5454816800e+01     1.0258541810e+01
         C     1.0641346940e+01     1.0744816830e+01     1.0258541660e+01
         C     1.2104597960e+01     1.4556216240e+01     7.6689446600e+00
         C     1.3760402040e+01     1.3703783700e+01     1.1073944700e+01
         C     1.2104598060e+01     1.8413783700e+01     1.1073944740e+01
         C     1.0065402040e+01     1.3703783730e+01     1.2761055380e+01
         C     8.4095979600e+00     1.4556216300e+01     9.3560553200e+00
         C     1.0065401940e+01     9.8462162700e+00     9.3560552900e+00
         C     1.0512376150e+01     1.5027224560e+01     1.2717906370e+01
         C     7.9626238300e+00     1.3232775310e+01     9.3129062400e+00
         C     1.0512376040e+01     1.7942775260e+01     9.3129064300e+00
         C     1.1657623880e+01     1.3232775420e+01     7.7120936200e+00
         C     1.4207376140e+01     1.5027224670e+01     1.1117093740e+01
         C     1.1657623940e+01     1.0317224720e+01     1.1117093650e+01
         H     6.6038737100e+00     2.3596082600e+00     6.7305438600e+00
         H     5.5696803400e+00     7.4691993000e-01     1.5259389900e+00
         H     1.0143408100e+00     1.5933967900e+00     5.1962591800e+00
         H     6.3756591900e+00     7.8266032000e+00     1.6137408500e+00
         H     1.8203196600e+00     8.6730800600e+00     5.2840610400e+00
         H     7.8612630000e-01     7.0603917300e+00     7.9456170000e-02
         H     4.4811262800e+00     7.0696083600e+00     6.7305438500e+00
         H     6.6038736800e+00     2.3503916900e+00     3.3255438000e+00
         H     4.4811263300e+00     7.0603916300e+00     3.3255438700e+00
         H     2.9088737200e+00     2.3503916200e+00     7.9456180000e-02
         H     7.8612632000e-01     7.0696082900e+00     3.4844562300e+00
         H     2.9088736700e+00     2.3596083500e+00     3.4844561600e+00
         H     5.5153195700e+00     5.4569199300e+00     1.5259389200e+00
         H     5.5696803800e+00     3.9630800100e+00     4.9309389200e+00
         H     5.5153195800e+00     8.6730800700e+00     4.9309388800e+00
         H     1.8746804300e+00     3.9630800500e+00     5.2840611100e+00
         H     1.8203196200e+00     5.4569199800e+00     1.8790611100e+00
         H     1.8746804200e+00     7.4691991000e-01     1.8790611500e+00
         H     2.6806591900e+00     6.3033967400e+00     5.1962591400e+00
         H     1.0143408300e+00     3.1166032800e+00     1.7912591100e+00
         H     2.6806591200e+00     7.8266031500e+00     1.7912591000e+00
         H     4.7093408100e+00     3.1166032300e+00     1.6137408800e+00
         H     6.3756591700e+00     6.3033967100e+00     5.0187409100e+00
         H     4.7093408800e+00     1.5933968300e+00     5.0187409300e+00
         H     6.6038737100e+00     2.3596082600e+00     1.3540543860e+01
         H     5.5696803400e+00     7.4691993000e-01     8.3359389900e+00
         H     1.0143408100e+00     1.5933967900e+00     1.2006259180e+01
         H     6.3756591900e+00     7.8266032000e+00     8.4237408500e+00
         H     1.8203196600e+00     8.6730800600e+00     1.2094061040e+01
         H     7.8612630000e-01     7.0603917300e+00     6.8894561700e+00
         H     4.4811262800e+00     7.0696083600e+00     1.3540543850e+01
         H     6.6038736800e+00     2.3503916900e+00     1.0135543800e+01
         H     4.4811263300e+00     7.0603916300e+00     1.0135543870e+01
         H     2.9088737200e+00     2.3503916200e+00     6.8894561800e+00
         H     7.8612632000e-01     7.0696082900e+00     1.0294456230e+01
         H     2.9088736700e+00     2.3596083500e+00     1.0294456160e+01
         H     5.5153195700e+00     5.4569199300e+00     8.3359389200e+00
         H     5.5696803800e+00     3.9630800100e+00     1.1740938920e+01
         H     5.5153195800e+00     8.6730800700e+00     1.1740938880e+01
         H     1.8746804300e+00     3.9630800500e+00     1.2094061110e+01
         H     1.8203196200e+00     5.4569199800e+00     8.6890611100e+00
         H     1.8746804200e+00     7.4691991000e-01     8.6890611500e+00
         H     2.6806591900e+00     6.3033967400e+00     1.2006259140e+01
         H     1.0143408300e+00     3.1166032800e+00     8.6012591100e+00
         H     2.6806591200e+00     7.8266031500e+00     8.6012591000e+00
         H     4.7093408100e+00     3.1166032300e+00     8.4237408800e+00
         H     6.3756591700e+00     6.3033967100e+00     1.1828740910e+01
         H     4.7093408800e+00     1.5933968300e+00     1.1828740930e+01
         H     6.6038737100e+00     1.1779608260e+01     6.7305438600e+00
         H     5.5696803400e+00     1.0166919930e+01     1.5259389900e+00
         H     1.0143408100e+00     1.1013396790e+01     5.1962591800e+00
         H     6.3756591900e+00     1.7246603200e+01     1.6137408500e+00
         H     1.8203196600e+00     1.8093080060e+01     5.2840610400e+00
         H     7.8612630000e-01     1.6480391730e+01     7.9456170000e-02
         H     4.4811262800e+00     1.6489608360e+01     6.7305438500e+00
         H     6.6038736800e+00     1.1770391690e+01     3.3255438000e+00
         H     4.4811263300e+00     1.6480391630e+01     3.3255438700e+00
         H     2.9088737200e+00     1.1770391620e+01     7.9456180000e-02
         H     7.8612632000e-01     1.6489608290e+01     3.4844562300e+00
         H     2.9088736700e+00     1.1779608350e+01     3.4844561600e+00
         H     5.5153195700e+00     1.4876919930e+01     1.5259389200e+00
         H     5.5696803800e+00     1.3383080010e+01     4.9309389200e+00
         H     5.5153195800e+00     1.8093080070e+01     4.9309388800e+00
         H     1.8746804300e+00     1.3383080050e+01     5.2840611100e+00
         H     1.8203196200e+00     1.4876919980e+01     1.8790611100e+00
         H     1.8746804200e+00     1.0166919910e+01     1.8790611500e+00
         H     2.6806591900e+00     1.5723396740e+01     5.1962591400e+00
         H     1.0143408300e+00     1.2536603280e+01     1.7912591100e+00
         H     2.6806591200e+00     1.7246603150e+01     1.7912591000e+00
         H     4.7093408100e+00     1.2536603230e+01     1.6137408800e+00
         H     6.3756591700e+00     1.5723396710e+01     5.0187409100e+00
         H     4.7093408800e+00     1.1013396830e+01     5.0187409300e+00
         H     6.6038737100e+00     1.1779608260e+01     1.3540543860e+01
         H     5.5696803400e+00     1.0166919930e+01     8.3359389900e+00
         H     1.0143408100e+00     1.1013396790e+01     1.2006259180e+01
         H     6.3756591900e+00     1.7246603200e+01     8.4237408500e+00
         H     1.8203196600e+00     1.8093080060e+01     1.2094061040e+01
         H     7.8612630000e-01     1.6480391730e+01     6.8894561700e+00
         H     4.4811262800e+00     1.6489608360e+01     1.3540543850e+01
         H     6.6038736800e+00     1.1770391690e+01     1.0135543800e+01
         H     4.4811263300e+00     1.6480391630e+01     1.0135543870e+01
         H     2.9088737200e+00     1.1770391620e+01     6.8894561800e+00
         H     7.8612632000e-01     1.6489608290e+01     1.0294456230e+01
         H     2.9088736700e+00     1.1779608350e+01     1.0294456160e+01
         H     5.5153195700e+00     1.4876919930e+01     8.3359389200e+00
         H     5.5696803800e+00     1.3383080010e+01     1.1740938920e+01
         H     5.5153195800e+00     1.8093080070e+01     1.1740938880e+01
         H     1.8746804300e+00     1.3383080050e+01     1.2094061110e+01
         H     1.8203196200e+00     1.4876919980e+01     8.6890611100e+00
         H     1.8746804200e+00     1.0166919910e+01     8.6890611500e+00
         H     2.6806591900e+00     1.5723396740e+01     1.2006259140e+01
         H     1.0143408300e+00     1.2536603280e+01     8.6012591100e+00
         H     2.6806591200e+00     1.7246603150e+01     8.6012591000e+00
         H     4.7093408100e+00     1.2536603230e+01     8.4237408800e+00
         H     6.3756591700e+00     1.5723396710e+01     1.1828740910e+01
         H     4.7093408800e+00     1.1013396830e+01     1.1828740930e+01
         H     1.3993873710e+01     2.3596082600e+00     6.7305438600e+00
         H     1.2959680340e+01     7.4691993000e-01     1.5259389900e+00
         H     8.4043408100e+00     1.5933967900e+00     5.1962591800e+00
         H     1.3765659190e+01     7.8266032000e+00     1.6137408500e+00
         H     9.2103196600e+00     8.6730800600e+00     5.2840610400e+00
         H     8.1761263000e+00     7.0603917300e+00     7.9456170000e-02
         H     1.1871126280e+01     7.0696083600e+00     6.7305438500e+00
         H     1.3993873680e+01     2.3503916900e+00     3.3255438000e+00
         H     1.1871126330e+01     7.0603916300e+00     3.3255438700e+00
         H     1.0298873720e+01     2.3503916200e+00     7.9456180000e-02
         H     8.1761263200e+00     7.0696082900e+00     3.4844562300e+00
         H     1.0298873670e+01     2.3596083500e+00     3.4844561600e+00
         H     1.2905319570e+01     5.4569199300e+00     1.5259389200e+00
         H     1.2959680380e+01     3.9630800100e+00     4.9309389200e+00
         H     1.2905319580e+01     8.6730800700e+00     4.9309388800e+00
         H     9.2646804300e+00     3.9630800500e+00     5.2840611100e+00
         H     9.2103196200e+00     5.4569199800e+00     1.8790611100e+00
         H     9.2646804200e+00     7.4691991000e-01     1.8790611500e+00
         H     1.0070659190e+01     6.3033967400e+00     5.1962591400e+00
         H     8.4043408300e+00     3.1166032800e+00     1.7912591100e+00
         H     1.0070659120e+01     7.8266031500e+00     1.7912591000e+00
         H     1.2099340810e+01     3.1166032300e+00     1.6137408800e+00
         H     1.3765659170e+01     6.3033967100e+00     5.0187409100e+00
         H     1.2099340880e+01     1.5933968300e+00     5.0187409300e+00
         H     1.3993873710e+01     2.3596082600e+00     1.3540543860e+01
         H     1.2959680340e+01     7.4691993000e-01     8.3359389900e+00
         H     8.4043408100e+00     1.5933967900e+00     1.2006259180e+01
         H     1.3765659190e+01     7.8266032000e+00     8.4237408500e+00
         H     9.2103196600e+00     8.6730800600e+00     1.2094061040e+01
         H     8.1761263000e+00     7.0603917300e+00     6.8894561700e+00
         H     1.1871126280e+01     7.0696083600e+00     1.3540543850e+01
         H     1.3993873680e+01     2.3503916900e+00     1.0135543800e+01
         H     1.1871126330e+01     7.0603916300e+00     1.0135543870e+01
         H     1.0298873720e+01     2.3503916200e+00     6.8894561800e+00
         H     8.1761263200e+00     7.0696082900e+00     1.0294456230e+01
         H     1.0298873670e+01     2.3596083500e+00     1.0294456160e+01
         H     1.2905319570e+01     5.4569199300e+00     8.3359389200e+00
         H     1.2959680380e+01     3.9630800100e+00     1.1740938920e+01
         H     1.2905319580e+01     8.6730800700e+00     1.1740938880e+01
         H     9.2646804300e+00     3.9630800500e+00     1.2094061110e+01
         H     9.2103196200e+00     5.4569199800e+00     8.6890611100e+00
         H     9.2646804200e+00     7.4691991000e-01     8.6890611500e+00
         H     1.0070659190e+01     6.3033967400e+00     1.2006259140e+01
         H     8.4043408300e+00     3.1166032800e+00     8.6012591100e+00
         H     1.0070659120e+01     7.8266031500e+00     8.6012591000e+00
         H     1.2099340810e+01     3.1166032300e+00     8.4237408800e+00
         H     1.3765659170e+01     6.3033967100e+00     1.1828740910e+01
         H     1.2099340880e+01     1.5933968300e+00     1.1828740930e+01
         H     1.3993873710e+01     1.1779608260e+01     6.7305438600e+00
         H     1.2959680340e+01     1.0166919930e+01     1.5259389900e+00
         H     8.4043408100e+00     1.1013396790e+01     5.1962591800e+00
         H     1.3765659190e+01     1.7246603200e+01     1.6137408500e+00
         H     9.2103196600e+00     1.8093080060e+01     5.2840610400e+00
         H     8.1761263000e+00     1.6480391730e+01     7.9456170000e-02
         H     1.1871126280e+01     1.6489608360e+01     6.7305438500e+00
         H     1.3993873680e+01     1.1770391690e+01     3.3255438000e+00
         H     1.1871126330e+01     1.6480391630e+01     3.3255438700e+00
         H     1.0298873720e+01     1.1770391620e+01     7.9456180000e-02
         H     8.1761263200e+00     1.6489608290e+01     3.4844562300e+00
         H     1.0298873670e+01     1.1779608350e+01     3.4844561600e+00
         H     1.2905319570e+01     1.4876919930e+01     1.5259389200e+00
         H     1.2959680380e+01     1.3383080010e+01     4.9309389200e+00
         H     1.2905319580e+01     1.8093080070e+01     4.9309388800e+00
         H     9.2646804300e+00     1.3383080050e+01     5.2840611100e+00
         H     9.2103196200e+00     1.4876919980e+01     1.8790611100e+00
         H     9.2646804200e+00     1.0166919910e+01     1.8790611500e+00
         H     1.0070659190e+01     1.5723396740e+01     5.1962591400e+00
         H     8.4043408300e+00     1.2536603280e+01     1.7912591100e+00
         H     1.0070659120e+01     1.7246603150e+01     1.7912591000e+00
         H     1.2099340810e+01     1.2536603230e+01     1.6137408800e+00
         H     1.3765659170e+01     1.5723396710e+01     5.0187409100e+00
         H     1.2099340880e+01     1.1013396830e+01     5.0187409300e+00
         H     1.3993873710e+01     1.1779608260e+01     1.3540543860e+01
         H     1.2959680340e+01     1.0166919930e+01     8.3359389900e+00
         H     8.4043408100e+00     1.1013396790e+01     1.2006259180e+01
         H     1.3765659190e+01     1.7246603200e+01     8.4237408500e+00
         H     9.2103196600e+00     1.8093080060e+01     1.2094061040e+01
         H     8.1761263000e+00     1.6480391730e+01     6.8894561700e+00
         H     1.1871126280e+01     1.6489608360e+01     1.3540543850e+01
         H     1.3993873680e+01     1.1770391690e+01     1.0135543800e+01
         H     1.1871126330e+01     1.6480391630e+01     1.0135543870e+01
         H     1.0298873720e+01     1.1770391620e+01     6.8894561800e+00
         H     8.1761263200e+00     1.6489608290e+01     1.0294456230e+01
         H     1.0298873670e+01     1.1779608350e+01     1.0294456160e+01
         H     1.2905319570e+01     1.4876919930e+01     8.3359389200e+00
         H     1.2959680380e+01     1.3383080010e+01     1.1740938920e+01
         H     1.2905319580e+01     1.8093080070e+01     1.1740938880e+01
         H     9.2646804300e+00     1.3383080050e+01     1.2094061110e+01
         H     9.2103196200e+00     1.4876919980e+01     8.6890611100e+00
         H     9.2646804200e+00     1.0166919910e+01     8.6890611500e+00
         H     1.0070659190e+01     1.5723396740e+01     1.2006259140e+01
         H     8.4043408300e+00     1.2536603280e+01     8.6012591100e+00
         H     1.0070659120e+01     1.7246603150e+01     8.6012591000e+00
         H     1.2099340810e+01     1.2536603230e+01     8.4237408800e+00
         H     1.3765659170e+01     1.5723396710e+01     1.1828740910e+01
         H     1.2099340880e+01     1.1013396830e+01     1.1828740930e+01
