3
# CELL(GENH):   25.00000    0.00000    0.00000    0.00000   25.00000    0.00000    0.00000    0.00000   25.00000 positions{angstrom} cell{angstrom}
         C     1.2500615000e+01     1.2499225000e+01     1.2501635000e+01
         O     1.3179665000e+01     1.1820015000e+01     1.1835195000e+01
         O     1.1820335000e+01     1.3179985000e+01     1.3164805000e+01
