8
# CELL(GENH):   25.00000    0.00000    0.00000    0.00000   25.00000    0.00000    0.00000    0.00000   25.00000 positions{angstrom} cell{angstrom}
         C     1.1206830000e+01     1.2630260000e+01     1.2500300000e+01
         C     1.2709600000e+01     1.2617760000e+01     1.2501280000e+01
         O     1.3434280000e+01     1.3587980000e+01     1.2500890000e+01
         O     1.3197010000e+01     1.1339500000e+01     1.2503570000e+01
         H     1.0850160000e+01     1.3660500000e+01     1.2500020000e+01
         H     1.0829840000e+01     1.2100960000e+01     1.1617850000e+01
         H     1.0829210000e+01     1.2100760000e+01     1.3382150000e+01
         H     1.4170790000e+01     1.1419160000e+01     1.2500800000e+01
