10
# CELL(GENH):   25.00000    0.00000    0.00000    0.00000   25.00000    0.00000    0.00000    0.00000   25.00000 positions{angstrom} cell{angstrom}
         N     1.3908065000e+01     1.2500010000e+01     1.2500210000e+01
         N     1.1091935000e+01     1.2500030000e+01     1.2500190000e+01
         C     1.3197545000e+01     1.1451500000e+01     1.2932450000e+01
         C     1.1802405000e+01     1.1451490000e+01     1.2932520000e+01
         C     1.1802455000e+01     1.3548470000e+01     1.2067560000e+01
         C     1.3197645000e+01     1.3548540000e+01     1.2067620000e+01
         H     1.3757095000e+01     1.0586250000e+01     1.3289120000e+01
         H     1.1243415000e+01     1.0586100000e+01     1.3289310000e+01
         H     1.1243415000e+01     1.4413900000e+01     1.1710690000e+01
         H     1.3757075000e+01     1.4413720000e+01     1.1710780000e+01
