384
# CELL(GENH):   16.82880    0.00000    0.00000    0.00000   11.98060    0.00000    4.00800    0.00000   18.11214 positions{angstrom} cell{angstrom}
         C     1.5186013710e+01     1.5473549000e-01     3.3429158100e+00
         C     1.6001051640e+01     9.3576416000e-01     2.5599753900e+00
         C     1.6423464960e+01     4.9190276000e-01     1.2708827700e+00
         C     4.1565004000e-01     1.2714556700e+00     4.4481548000e-01
         C     7.5812058400e+00     5.1787355200e+00     8.1242098000e-01
         C     6.7374561800e+00     4.3991805100e+00     1.6568043100e+00
         C     6.3362312500e+00     4.8691164800e+00     2.8831863600e+00
         C     1.1251594170e+01     8.1156448000e-01     8.2436489900e+00
         C     1.8417149970e+01     4.7188443300e+00     8.6112545000e+00
         C     2.4093350500e+00     5.4983972400e+00     7.7851872100e+00
         C     1.2095343830e+01     1.5911195000e+00     7.3992656700e+00
         C     2.8317483700e+00     5.0545358500e+00     6.4960945900e+00
         C     1.2496568760e+01     1.1211835200e+00     6.1728836200e+00
         C     3.6467863000e+00     5.8355645100e+00     5.7131541700e+00
         C     1.6268385980e+01     3.1498861800e+00     5.7131539300e+00
         C     2.5644140200e+00     2.8404138500e+00     3.3429160600e+00
         C     1.5453348390e+01     3.9309148300e+00     6.4960947300e+00
         C     3.3794516200e+00     2.0593852000e+00     2.5599752600e+00
         C     1.5030934980e+01     3.4870533200e+00     7.7851875700e+00
         C     3.8018650300e+00     2.5032467200e+00     1.2708824200e+00
         C     1.4209950080e+01     4.2666058700e+00     8.6112551000e+00
         C     4.6228499300e+00     1.7236941700e+00     4.4481490000e-01
         C     1.5458794110e+01     2.1835858800e+00     8.2436488200e+00
         C     3.3740059000e+00     3.8067141500e+00     8.1242118000e-01
         C     1.6302543370e+01     1.4040307700e+00     7.3992651300e+00
         C     2.5302566300e+00     4.5862692600e+00     1.6568048600e+00
         C     1.6703768170e+01     1.8739670700e+00     6.1728830000e+00
         C     2.1290318300e+00     4.1163329500e+00     2.8831870000e+00
         C     1.5186013710e+01     6.1450354900e+00     3.3429158100e+00
         C     1.6001051640e+01     6.9260641600e+00     2.5599753900e+00
         C     1.6423464960e+01     6.4822027600e+00     1.2708827700e+00
         C     4.1565004000e-01     7.2617556700e+00     4.4481548000e-01
         C     7.5812058400e+00     1.1169035520e+01     8.1242098000e-01
         C     6.7374561800e+00     1.0389480510e+01     1.6568043100e+00
         C     6.3362312500e+00     1.0859416480e+01     2.8831863600e+00
         C     1.1251594170e+01     6.8018644800e+00     8.2436489900e+00
         C     1.8417149970e+01     1.0709144330e+01     8.6112545000e+00
         C     2.4093350500e+00     1.1488697240e+01     7.7851872100e+00
         C     1.2095343830e+01     7.5814195000e+00     7.3992656700e+00
         C     2.8317483700e+00     1.1044835850e+01     6.4960945900e+00
         C     1.2496568760e+01     7.1114835200e+00     6.1728836200e+00
         C     3.6467863000e+00     1.1825864510e+01     5.7131541700e+00
         C     1.6268385980e+01     9.1401861800e+00     5.7131539300e+00
         C     2.5644140200e+00     8.8307138500e+00     3.3429160600e+00
         C     1.5453348390e+01     9.9212148300e+00     6.4960947300e+00
         C     3.3794516200e+00     8.0496852000e+00     2.5599752600e+00
         C     1.5030934980e+01     9.4773533200e+00     7.7851875700e+00
         C     3.8018650300e+00     8.4935467200e+00     1.2708824200e+00
         C     1.4209950080e+01     1.0256905870e+01     8.6112551000e+00
         C     4.6228499300e+00     7.7139941700e+00     4.4481490000e-01
         C     1.5458794110e+01     8.1738858800e+00     8.2436488200e+00
         C     3.3740059000e+00     9.7970141500e+00     8.1242118000e-01
         C     1.6302543370e+01     7.3943307700e+00     7.3992651300e+00
         C     2.5302566300e+00     1.0576569260e+01     1.6568048600e+00
         C     1.6703768170e+01     7.8642670700e+00     6.1728830000e+00
         C     2.1290318300e+00     1.0106632950e+01     2.8831870000e+00
         C     6.7716137100e+00     1.5473549000e-01     3.3429158100e+00
         C     7.5866516400e+00     9.3576416000e-01     2.5599753900e+00
         C     8.0090649600e+00     4.9190276000e-01     1.2708827700e+00
         C     8.8300500400e+00     1.2714556700e+00     4.4481548000e-01
         C     1.5995605840e+01     5.1787355200e+00     8.1242098000e-01
         C     1.5151856180e+01     4.3991805100e+00     1.6568043100e+00
         C     1.4750631250e+01     4.8691164800e+00     2.8831863600e+00
         C     2.8371941700e+00     8.1156448000e-01     8.2436489900e+00
         C     1.0002749970e+01     4.7188443300e+00     8.6112545000e+00
         C     1.0823735050e+01     5.4983972400e+00     7.7851872100e+00
         C     3.6809438300e+00     1.5911195000e+00     7.3992656700e+00
         C     1.1246148370e+01     5.0545358500e+00     6.4960945900e+00
         C     4.0821687600e+00     1.1211835200e+00     6.1728836200e+00
         C     1.2061186300e+01     5.8355645100e+00     5.7131541700e+00
         C     7.8539859800e+00     3.1498861800e+00     5.7131539300e+00
         C     1.0978814020e+01     2.8404138500e+00     3.3429160600e+00
         C     7.0389483900e+00     3.9309148300e+00     6.4960947300e+00
         C     1.1793851620e+01     2.0593852000e+00     2.5599752600e+00
         C     6.6165349800e+00     3.4870533200e+00     7.7851875700e+00
         C     1.2216265030e+01     2.5032467200e+00     1.2708824200e+00
         C     5.7955500800e+00     4.2666058700e+00     8.6112551000e+00
         C     1.3037249930e+01     1.7236941700e+00     4.4481490000e-01
         C     7.0443941100e+00     2.1835858800e+00     8.2436488200e+00
         C     1.1788405900e+01     3.8067141500e+00     8.1242118000e-01
         C     7.8881433700e+00     1.4040307700e+00     7.3992651300e+00
         C     1.0944656630e+01     4.5862692600e+00     1.6568048600e+00
         C     8.2893681700e+00     1.8739670700e+00     6.1728830000e+00
         C     1.0543431830e+01     4.1163329500e+00     2.8831870000e+00
         C     1.7190013710e+01     1.5473549000e-01     1.2398985810e+01
         C     1.8005051640e+01     9.3576416000e-01     1.1616045390e+01
         C     1.8427464960e+01     4.9190276000e-01     1.0326952770e+01
         C     2.4196500400e+00     1.2714556700e+00     9.5008854800e+00
         C     9.5852058400e+00     5.1787355200e+00     9.8684909800e+00
         C     8.7414561800e+00     4.3991805100e+00     1.0712874310e+01
         C     8.3402312500e+00     4.8691164800e+00     1.1939256360e+01
         C     1.3255594170e+01     8.1156448000e-01     1.7299718990e+01
         C     2.0421149970e+01     4.7188443300e+00     1.7667324500e+01
         C     4.4133350500e+00     5.4983972400e+00     1.6841257210e+01
         C     1.4099343830e+01     1.5911195000e+00     1.6455335670e+01
         C     4.8357483700e+00     5.0545358500e+00     1.5552164590e+01
         C     1.4500568760e+01     1.1211835200e+00     1.5228953620e+01
         C     5.6507863000e+00     5.8355645100e+00     1.4769224170e+01
         C     1.8272385980e+01     3.1498861800e+00     1.4769223930e+01
         C     4.5684140200e+00     2.8404138500e+00     1.2398986060e+01
         C     1.7457348390e+01     3.9309148300e+00     1.5552164730e+01
         C     5.3834516200e+00     2.0593852000e+00     1.1616045260e+01
         C     1.7034934980e+01     3.4870533200e+00     1.6841257570e+01
         C     5.8058650300e+00     2.5032467200e+00     1.0326952420e+01
         C     1.6213950080e+01     4.2666058700e+00     1.7667325100e+01
         C     6.6268499300e+00     1.7236941700e+00     9.5008849000e+00
         C     1.7462794110e+01     2.1835858800e+00     1.7299718820e+01
         C     5.3780059000e+00     3.8067141500e+00     9.8684911800e+00
         C     1.8306543370e+01     1.4040307700e+00     1.6455335130e+01
         C     4.5342566300e+00     4.5862692600e+00     1.0712874860e+01
         C     1.8707768170e+01     1.8739670700e+00     1.5228953000e+01
         C     4.1330318300e+00     4.1163329500e+00     1.1939257000e+01
         C     6.7716137100e+00     6.1450354900e+00     3.3429158100e+00
         C     7.5866516400e+00     6.9260641600e+00     2.5599753900e+00
         C     8.0090649600e+00     6.4822027600e+00     1.2708827700e+00
         C     8.8300500400e+00     7.2617556700e+00     4.4481548000e-01
         C     1.5995605840e+01     1.1169035520e+01     8.1242098000e-01
         C     1.5151856180e+01     1.0389480510e+01     1.6568043100e+00
         C     1.4750631250e+01     1.0859416480e+01     2.8831863600e+00
         C     2.8371941700e+00     6.8018644800e+00     8.2436489900e+00
         C     1.0002749970e+01     1.0709144330e+01     8.6112545000e+00
         C     1.0823735050e+01     1.1488697240e+01     7.7851872100e+00
         C     3.6809438300e+00     7.5814195000e+00     7.3992656700e+00
         C     1.1246148370e+01     1.1044835850e+01     6.4960945900e+00
         C     4.0821687600e+00     7.1114835200e+00     6.1728836200e+00
         C     1.2061186300e+01     1.1825864510e+01     5.7131541700e+00
         C     7.8539859800e+00     9.1401861800e+00     5.7131539300e+00
         C     1.0978814020e+01     8.8307138500e+00     3.3429160600e+00
         C     7.0389483900e+00     9.9212148300e+00     6.4960947300e+00
         C     1.1793851620e+01     8.0496852000e+00     2.5599752600e+00
         C     6.6165349800e+00     9.4773533200e+00     7.7851875700e+00
         C     1.2216265030e+01     8.4935467200e+00     1.2708824200e+00
         C     5.7955500800e+00     1.0256905870e+01     8.6112551000e+00
         C     1.3037249930e+01     7.7139941700e+00     4.4481490000e-01
         C     7.0443941100e+00     8.1738858800e+00     8.2436488200e+00
         C     1.1788405900e+01     9.7970141500e+00     8.1242118000e-01
         C     7.8881433700e+00     7.3943307700e+00     7.3992651300e+00
         C     1.0944656630e+01     1.0576569260e+01     1.6568048600e+00
         C     8.2893681700e+00     7.8642670700e+00     6.1728830000e+00
         C     1.0543431830e+01     1.0106632950e+01     2.8831870000e+00
         C     1.7190013710e+01     6.1450354900e+00     1.2398985810e+01
         C     1.8005051640e+01     6.9260641600e+00     1.1616045390e+01
         C     1.8427464960e+01     6.4822027600e+00     1.0326952770e+01
         C     2.4196500400e+00     7.2617556700e+00     9.5008854800e+00
         C     9.5852058400e+00     1.1169035520e+01     9.8684909800e+00
         C     8.7414561800e+00     1.0389480510e+01     1.0712874310e+01
         C     8.3402312500e+00     1.0859416480e+01     1.1939256360e+01
         C     1.3255594170e+01     6.8018644800e+00     1.7299718990e+01
         C     2.0421149970e+01     1.0709144330e+01     1.7667324500e+01
         C     4.4133350500e+00     1.1488697240e+01     1.6841257210e+01
         C     1.4099343830e+01     7.5814195000e+00     1.6455335670e+01
         C     4.8357483700e+00     1.1044835850e+01     1.5552164590e+01
         C     1.4500568760e+01     7.1114835200e+00     1.5228953620e+01
         C     5.6507863000e+00     1.1825864510e+01     1.4769224170e+01
         C     1.8272385980e+01     9.1401861800e+00     1.4769223930e+01
         C     4.5684140200e+00     8.8307138500e+00     1.2398986060e+01
         C     1.7457348390e+01     9.9212148300e+00     1.5552164730e+01
         C     5.3834516200e+00     8.0496852000e+00     1.1616045260e+01
         C     1.7034934980e+01     9.4773533200e+00     1.6841257570e+01
         C     5.8058650300e+00     8.4935467200e+00     1.0326952420e+01
         C     1.6213950080e+01     1.0256905870e+01     1.7667325100e+01
         C     6.6268499300e+00     7.7139941700e+00     9.5008849000e+00
         C     1.7462794110e+01     8.1738858800e+00     1.7299718820e+01
         C     5.3780059000e+00     9.7970141500e+00     9.8684911800e+00
         C     1.8306543370e+01     7.3943307700e+00     1.6455335130e+01
         C     4.5342566300e+00     1.0576569260e+01     1.0712874860e+01
         C     1.8707768170e+01     7.8642670700e+00     1.5228953000e+01
         C     4.1330318300e+00     1.0106632950e+01     1.1939257000e+01
         C     8.7756137100e+00     1.5473549000e-01     1.2398985810e+01
         C     9.5906516400e+00     9.3576416000e-01     1.1616045390e+01
         C     1.0013064960e+01     4.9190276000e-01     1.0326952770e+01
         C     1.0834050040e+01     1.2714556700e+00     9.5008854800e+00
         C     1.7999605840e+01     5.1787355200e+00     9.8684909800e+00
         C     1.7155856180e+01     4.3991805100e+00     1.0712874310e+01
         C     1.6754631250e+01     4.8691164800e+00     1.1939256360e+01
         C     4.8411941700e+00     8.1156448000e-01     1.7299718990e+01
         C     1.2006749970e+01     4.7188443300e+00     1.7667324500e+01
         C     1.2827735050e+01     5.4983972400e+00     1.6841257210e+01
         C     5.6849438300e+00     1.5911195000e+00     1.6455335670e+01
         C     1.3250148370e+01     5.0545358500e+00     1.5552164590e+01
         C     6.0861687600e+00     1.1211835200e+00     1.5228953620e+01
         C     1.4065186300e+01     5.8355645100e+00     1.4769224170e+01
         C     9.8579859800e+00     3.1498861800e+00     1.4769223930e+01
         C     1.2982814020e+01     2.8404138500e+00     1.2398986060e+01
         C     9.0429483900e+00     3.9309148300e+00     1.5552164730e+01
         C     1.3797851620e+01     2.0593852000e+00     1.1616045260e+01
         C     8.6205349800e+00     3.4870533200e+00     1.6841257570e+01
         C     1.4220265030e+01     2.5032467200e+00     1.0326952420e+01
         C     7.7995500800e+00     4.2666058700e+00     1.7667325100e+01
         C     1.5041249930e+01     1.7236941700e+00     9.5008849000e+00
         C     9.0483941100e+00     2.1835858800e+00     1.7299718820e+01
         C     1.3792405900e+01     3.8067141500e+00     9.8684911800e+00
         C     9.8921433700e+00     1.4040307700e+00     1.6455335130e+01
         C     1.2948656630e+01     4.5862692600e+00     1.0712874860e+01
         C     1.0293368170e+01     1.8739670700e+00     1.5228953000e+01
         C     1.2547431830e+01     4.1163329500e+00     1.1939257000e+01
         C     8.7756137100e+00     6.1450354900e+00     1.2398985810e+01
         C     9.5906516400e+00     6.9260641600e+00     1.1616045390e+01
         C     1.0013064960e+01     6.4822027600e+00     1.0326952770e+01
         C     1.0834050040e+01     7.2617556700e+00     9.5008854800e+00
         C     1.7999605840e+01     1.1169035520e+01     9.8684909800e+00
         C     1.7155856180e+01     1.0389480510e+01     1.0712874310e+01
         C     1.6754631250e+01     1.0859416480e+01     1.1939256360e+01
         C     4.8411941700e+00     6.8018644800e+00     1.7299718990e+01
         C     1.2006749970e+01     1.0709144330e+01     1.7667324500e+01
         C     1.2827735050e+01     1.1488697240e+01     1.6841257210e+01
         C     5.6849438300e+00     7.5814195000e+00     1.6455335670e+01
         C     1.3250148370e+01     1.1044835850e+01     1.5552164590e+01
         C     6.0861687600e+00     7.1114835200e+00     1.5228953620e+01
         C     1.4065186300e+01     1.1825864510e+01     1.4769224170e+01
         C     9.8579859800e+00     9.1401861800e+00     1.4769223930e+01
         C     1.2982814020e+01     8.8307138500e+00     1.2398986060e+01
         C     9.0429483900e+00     9.9212148300e+00     1.5552164730e+01
         C     1.3797851620e+01     8.0496852000e+00     1.1616045260e+01
         C     8.6205349800e+00     9.4773533200e+00     1.6841257570e+01
         C     1.4220265030e+01     8.4935467200e+00     1.0326952420e+01
         C     7.7995500800e+00     1.0256905870e+01     1.7667325100e+01
         C     1.5041249930e+01     7.7139941700e+00     9.5008849000e+00
         C     9.0483941100e+00     8.1738858800e+00     1.7299718820e+01
         C     1.3792405900e+01     9.7970141500e+00     9.8684911800e+00
         C     9.8921433700e+00     7.3943307700e+00     1.6455335130e+01
         C     1.2948656630e+01     1.0576569260e+01     1.0712874860e+01
         C     1.0293368170e+01     7.8642670700e+00     1.5228953000e+01
         C     1.2547431830e+01     1.0106632950e+01     1.1939257000e+01
         H     1.4873548310e+01     5.1408641000e-01     4.3235448800e+00
         H     1.6334429010e+01     1.9145933000e+00     2.9057273500e+00
         H     7.4568187000e-01     2.2528106100e+00     7.9155651000e-01
         H     6.4143781200e+00     3.4194384900e+00     1.3078247000e+00
         H     5.6850906100e+00     4.2580290900e+00     3.5103606500e+00
         H     1.8087118140e+01     3.7374894000e+00     8.2645134600e+00
         H     1.2418421890e+01     2.5708615100e+00     7.7482452800e+00
         H     2.4983710000e+00     4.0757067000e+00     6.1503426300e+00
         H     1.3147709410e+01     1.7322709100e+00     5.5457093300e+00
         H     3.9592517100e+00     5.4762135900e+00     4.7325251100e+00
         H     1.6580851110e+01     3.5092373200e+00     4.7325249100e+00
         H     2.2519488900e+00     2.4810627000e+00     4.3235450800e+00
         H     1.5119970760e+01     4.9097440200e+00     6.1503431400e+00
         H     3.7128292500e+00     1.0805560100e+00     2.9057268600e+00
         H     1.3879918000e+01     5.2479608700e+00     8.2645142700e+00
         H     4.9528820100e+00     7.4233917000e-01     7.9155573000e-01
         H     1.6625621510e+01     4.2428874000e-01     7.7482448200e+00
         H     2.2071784900e+00     5.5660112900e+00     1.3078251800e+00
         H     1.7354908770e+01     1.2628795500e+00     5.5457087100e+00
         H     1.4778912300e+00     4.7274204700e+00     3.5103612900e+00
         H     1.4873548310e+01     6.5043864100e+00     4.3235448800e+00
         H     1.6334429010e+01     7.9048933000e+00     2.9057273500e+00
         H     7.4568187000e-01     8.2431106100e+00     7.9155651000e-01
         H     6.4143781200e+00     9.4097384900e+00     1.3078247000e+00
         H     5.6850906100e+00     1.0248329090e+01     3.5103606500e+00
         H     1.8087118140e+01     9.7277894000e+00     8.2645134600e+00
         H     1.2418421890e+01     8.5611615100e+00     7.7482452800e+00
         H     2.4983710000e+00     1.0066006700e+01     6.1503426300e+00
         H     1.3147709410e+01     7.7225709100e+00     5.5457093300e+00
         H     3.9592517100e+00     1.1466513590e+01     4.7325251100e+00
         H     1.6580851110e+01     9.4995373200e+00     4.7325249100e+00
         H     2.2519488900e+00     8.4713627000e+00     4.3235450800e+00
         H     1.5119970760e+01     1.0900044020e+01     6.1503431400e+00
         H     3.7128292500e+00     7.0708560100e+00     2.9057268600e+00
         H     1.3879918000e+01     1.1238260870e+01     8.2645142700e+00
         H     4.9528820100e+00     6.7326391700e+00     7.9155573000e-01
         H     1.6625621510e+01     6.4145887400e+00     7.7482448200e+00
         H     2.2071784900e+00     1.1556311290e+01     1.3078251800e+00
         H     1.7354908770e+01     7.2531795500e+00     5.5457087100e+00
         H     1.4778912300e+00     1.0717720470e+01     3.5103612900e+00
         H     6.4591483100e+00     5.1408641000e-01     4.3235448800e+00
         H     7.9200290100e+00     1.9145933000e+00     2.9057273500e+00
         H     9.1600818700e+00     2.2528106100e+00     7.9155651000e-01
         H     1.4828778120e+01     3.4194384900e+00     1.3078247000e+00
         H     1.4099490610e+01     4.2580290900e+00     3.5103606500e+00
         H     9.6727181400e+00     3.7374894000e+00     8.2645134600e+00
         H     4.0040218900e+00     2.5708615100e+00     7.7482452800e+00
         H     1.0912771000e+01     4.0757067000e+00     6.1503426300e+00
         H     4.7333094100e+00     1.7322709100e+00     5.5457093300e+00
         H     1.2373651710e+01     5.4762135900e+00     4.7325251100e+00
         H     8.1664511100e+00     3.5092373200e+00     4.7325249100e+00
         H     1.0666348890e+01     2.4810627000e+00     4.3235450800e+00
         H     6.7055707600e+00     4.9097440200e+00     6.1503431400e+00
         H     1.2127229250e+01     1.0805560100e+00     2.9057268600e+00
         H     5.4655180000e+00     5.2479608700e+00     8.2645142700e+00
         H     1.3367282010e+01     7.4233917000e-01     7.9155573000e-01
         H     8.2112215100e+00     4.2428874000e-01     7.7482448200e+00
         H     1.0621578490e+01     5.5660112900e+00     1.3078251800e+00
         H     8.9405087700e+00     1.2628795500e+00     5.5457087100e+00
         H     9.8922912300e+00     4.7274204700e+00     3.5103612900e+00
         H     1.6877548310e+01     5.1408641000e-01     1.3379614880e+01
         H     1.8338429010e+01     1.9145933000e+00     1.1961797350e+01
         H     2.7496818700e+00     2.2528106100e+00     9.8476265100e+00
         H     8.4183781200e+00     3.4194384900e+00     1.0363894700e+01
         H     7.6890906100e+00     4.2580290900e+00     1.2566430650e+01
         H     2.0091118140e+01     3.7374894000e+00     1.7320583460e+01
         H     1.4422421890e+01     2.5708615100e+00     1.6804315280e+01
         H     4.5023710000e+00     4.0757067000e+00     1.5206412630e+01
         H     1.5151709410e+01     1.7322709100e+00     1.4601779330e+01
         H     5.9632517100e+00     5.4762135900e+00     1.3788595110e+01
         H     1.8584851110e+01     3.5092373200e+00     1.3788594910e+01
         H     4.2559488900e+00     2.4810627000e+00     1.3379615080e+01
         H     1.7123970760e+01     4.9097440200e+00     1.5206413140e+01
         H     5.7168292500e+00     1.0805560100e+00     1.1961796860e+01
         H     1.5883918000e+01     5.2479608700e+00     1.7320584270e+01
         H     6.9568820100e+00     7.4233917000e-01     9.8476257300e+00
         H     1.8629621510e+01     4.2428874000e-01     1.6804314820e+01
         H     4.2111784900e+00     5.5660112900e+00     1.0363895180e+01
         H     1.9358908770e+01     1.2628795500e+00     1.4601778710e+01
         H     3.4818912300e+00     4.7274204700e+00     1.2566431290e+01
         H     6.4591483100e+00     6.5043864100e+00     4.3235448800e+00
         H     7.9200290100e+00     7.9048933000e+00     2.9057273500e+00
         H     9.1600818700e+00     8.2431106100e+00     7.9155651000e-01
         H     1.4828778120e+01     9.4097384900e+00     1.3078247000e+00
         H     1.4099490610e+01     1.0248329090e+01     3.5103606500e+00
         H     9.6727181400e+00     9.7277894000e+00     8.2645134600e+00
         H     4.0040218900e+00     8.5611615100e+00     7.7482452800e+00
         H     1.0912771000e+01     1.0066006700e+01     6.1503426300e+00
         H     4.7333094100e+00     7.7225709100e+00     5.5457093300e+00
         H     1.2373651710e+01     1.1466513590e+01     4.7325251100e+00
         H     8.1664511100e+00     9.4995373200e+00     4.7325249100e+00
         H     1.0666348890e+01     8.4713627000e+00     4.3235450800e+00
         H     6.7055707600e+00     1.0900044020e+01     6.1503431400e+00
         H     1.2127229250e+01     7.0708560100e+00     2.9057268600e+00
         H     5.4655180000e+00     1.1238260870e+01     8.2645142700e+00
         H     1.3367282010e+01     6.7326391700e+00     7.9155573000e-01
         H     8.2112215100e+00     6.4145887400e+00     7.7482448200e+00
         H     1.0621578490e+01     1.1556311290e+01     1.3078251800e+00
         H     8.9405087700e+00     7.2531795500e+00     5.5457087100e+00
         H     9.8922912300e+00     1.0717720470e+01     3.5103612900e+00
         H     1.6877548310e+01     6.5043864100e+00     1.3379614880e+01
         H     1.8338429010e+01     7.9048933000e+00     1.1961797350e+01
         H     2.7496818700e+00     8.2431106100e+00     9.8476265100e+00
         H     8.4183781200e+00     9.4097384900e+00     1.0363894700e+01
         H     7.6890906100e+00     1.0248329090e+01     1.2566430650e+01
         H     2.0091118140e+01     9.7277894000e+00     1.7320583460e+01
         H     1.4422421890e+01     8.5611615100e+00     1.6804315280e+01
         H     4.5023710000e+00     1.0066006700e+01     1.5206412630e+01
         H     1.5151709410e+01     7.7225709100e+00     1.4601779330e+01
         H     5.9632517100e+00     1.1466513590e+01     1.3788595110e+01
         H     1.8584851110e+01     9.4995373200e+00     1.3788594910e+01
         H     4.2559488900e+00     8.4713627000e+00     1.3379615080e+01
         H     1.7123970760e+01     1.0900044020e+01     1.5206413140e+01
         H     5.7168292500e+00     7.0708560100e+00     1.1961796860e+01
         H     1.5883918000e+01     1.1238260870e+01     1.7320584270e+01
         H     6.9568820100e+00     6.7326391700e+00     9.8476257300e+00
         H     1.8629621510e+01     6.4145887400e+00     1.6804314820e+01
         H     4.2111784900e+00     1.1556311290e+01     1.0363895180e+01
         H     1.9358908770e+01     7.2531795500e+00     1.4601778710e+01
         H     3.4818912300e+00     1.0717720470e+01     1.2566431290e+01
         H     8.4631483100e+00     5.1408641000e-01     1.3379614880e+01
         H     9.9240290100e+00     1.9145933000e+00     1.1961797350e+01
         H     1.1164081870e+01     2.2528106100e+00     9.8476265100e+00
         H     1.6832778120e+01     3.4194384900e+00     1.0363894700e+01
         H     1.6103490610e+01     4.2580290900e+00     1.2566430650e+01
         H     1.1676718140e+01     3.7374894000e+00     1.7320583460e+01
         H     6.0080218900e+00     2.5708615100e+00     1.6804315280e+01
         H     1.2916771000e+01     4.0757067000e+00     1.5206412630e+01
         H     6.7373094100e+00     1.7322709100e+00     1.4601779330e+01
         H     1.4377651710e+01     5.4762135900e+00     1.3788595110e+01
         H     1.0170451110e+01     3.5092373200e+00     1.3788594910e+01
         H     1.2670348890e+01     2.4810627000e+00     1.3379615080e+01
         H     8.7095707600e+00     4.9097440200e+00     1.5206413140e+01
         H     1.4131229250e+01     1.0805560100e+00     1.1961796860e+01
         H     7.4695180000e+00     5.2479608700e+00     1.7320584270e+01
         H     1.5371282010e+01     7.4233917000e-01     9.8476257300e+00
         H     1.0215221510e+01     4.2428874000e-01     1.6804314820e+01
         H     1.2625578490e+01     5.5660112900e+00     1.0363895180e+01
         H     1.0944508770e+01     1.2628795500e+00     1.4601778710e+01
         H     1.1896291230e+01     4.7274204700e+00     1.2566431290e+01
         H     8.4631483100e+00     6.5043864100e+00     1.3379614880e+01
         H     9.9240290100e+00     7.9048933000e+00     1.1961797350e+01
         H     1.1164081870e+01     8.2431106100e+00     9.8476265100e+00
         H     1.6832778120e+01     9.4097384900e+00     1.0363894700e+01
         H     1.6103490610e+01     1.0248329090e+01     1.2566430650e+01
         H     1.1676718140e+01     9.7277894000e+00     1.7320583460e+01
         H     6.0080218900e+00     8.5611615100e+00     1.6804315280e+01
         H     1.2916771000e+01     1.0066006700e+01     1.5206412630e+01
         H     6.7373094100e+00     7.7225709100e+00     1.4601779330e+01
         H     1.4377651710e+01     1.1466513590e+01     1.3788595110e+01
         H     1.0170451110e+01     9.4995373200e+00     1.3788594910e+01
         H     1.2670348890e+01     8.4713627000e+00     1.3379615080e+01
         H     8.7095707600e+00     1.0900044020e+01     1.5206413140e+01
         H     1.4131229250e+01     7.0708560100e+00     1.1961796860e+01
         H     7.4695180000e+00     1.1238260870e+01     1.7320584270e+01
         H     1.5371282010e+01     6.7326391700e+00     9.8476257300e+00
         H     1.0215221510e+01     6.4145887400e+00     1.6804314820e+01
         H     1.2625578490e+01     1.1556311290e+01     1.0363895180e+01
         H     1.0944508770e+01     7.2531795500e+00     1.4601778710e+01
         H     1.1896291230e+01     1.0717720470e+01     1.2566431290e+01
