12
# CELL(GENH):   25.00000    0.00000    0.00000    0.00000   25.00000    0.00000    0.00000    0.00000   25.00000 positions{angstrom} cell{angstrom}
         C     1.1688850000e+01     1.1271165000e+01     1.2500210000e+01
         C     1.3793760000e+01     1.2656105000e+01     1.2500060000e+01
         C     1.2950360000e+01     1.3839945000e+01     1.2499140000e+01
         C     1.1604770000e+01     1.3712635000e+01     1.2499090000e+01
         H     1.3613920000e+01     1.0586705000e+01     1.2499420000e+01
         H     9.9834800000e+00     1.2397485000e+01     1.2499080000e+01
         H     1.3430690000e+01     1.4810375000e+01     1.2499040000e+01
         H     1.0932960000e+01     1.4566435000e+01     1.2498850000e+01
         N     1.0993300000e+01     1.2483265000e+01     1.2499920000e+01
         N     1.3063050000e+01     1.1442205000e+01     1.2500200000e+01
         O     1.5016520000e+01     1.2635535000e+01     1.2501150000e+01
         O     1.1126530000e+01     1.0189625000e+01     1.2500780000e+01
