20
# CELL(GENH):   25.00000    0.00000    0.00000    0.00000   25.00000    0.00000    0.00000    0.00000   25.00000 positions{angstrom} cell{angstrom}
         O     1.6843213820e+01     1.3011449750e+01     1.2558224130e+01
         O     1.0270064000e+01     1.3971094450e+01     1.2263584140e+01
         N     1.1325844570e+01     1.1937214480e+01     1.2548150090e+01
         C     1.2707068240e+01     1.2287236080e+01     1.2540436900e+01
         C     1.3173592170e+01     1.3602479810e+01     1.2386756680e+01
         C     1.3639273600e+01     1.1245056590e+01     1.2696578810e+01
         C     1.4548694550e+01     1.3854297820e+01     1.2391276110e+01
         C     1.5007725420e+01     1.1499394100e+01     1.2700604680e+01
         C     1.5465598120e+01     1.2811970790e+01     1.2547032680e+01
         C     1.0213129420e+01     1.2751991030e+01     1.2415943280e+01
         C     8.8735903600e+00     1.2016070750e+01     1.2473460880e+01
         H     1.2471878860e+01     1.4409868970e+01     1.2266332230e+01
         H     1.3288656980e+01     1.0225399940e+01     1.2816013030e+01
         H     1.1142541020e+01     1.0950947000e+01     1.2667787170e+01
         H     1.4901689090e+01     1.4872975060e+01     1.2272028270e+01
         H     1.5722346010e+01     1.0696413230e+01     1.2820813500e+01
         H     8.3303475100e+00     1.2209213380e+01     1.1547227630e+01
         H     8.2842549600e+00     1.2429575150e+01     1.3293230850e+01
         H     8.9684348800e+00     1.0938206630e+01     1.2612001100e+01
         H     1.7030656430e+01     1.3956345000e+01     1.2443917870e+01
