8
# CELL(GENH):   25.00000    0.00000    0.00000    0.00000   25.00000    0.00000    0.00000    0.00000   25.00000 positions{angstrom} cell{angstrom}
         C     1.2637690000e+01     1.2998950000e+01     1.2500940000e+01
         O     1.3247070000e+01     1.4059720000e+01     1.2500280000e+01
         N     1.1285400000e+01     1.2904710000e+01     1.2198630000e+01
         N     1.3238190000e+01     1.1784130000e+01     1.2804020000e+01
         H     1.0749930000e+01     1.2150930000e+01     1.2614220000e+01
         H     1.0814070000e+01     1.3801280000e+01     1.2187800000e+01
         H     1.2853170000e+01     1.0940280000e+01     1.2395510000e+01
         H     1.4250070000e+01     1.1827410000e+01     1.2812200000e+01
