96
# CELL(GENH):   11.24800    0.00000    0.00000    0.00000   11.24800    0.00000    0.00000    0.00000   11.24800 positions{angstrom} cell{angstrom}
         C     3.3737131000e-01     3.3737125000e-01     3.3737125000e-01
         C     3.1493712600e+00     3.3737121000e-01     3.1493711800e+00
         C     3.3737126000e-01     3.1493711900e+00     3.1493712100e+00
         C     3.1493712300e+00     3.1493712200e+00     3.3737122000e-01
         C     3.3737131000e-01     3.3737125000e-01     5.9613712500e+00
         C     3.1493712600e+00     3.3737121000e-01     8.7733711800e+00
         C     3.3737126000e-01     3.1493711900e+00     8.7733712100e+00
         C     3.1493712300e+00     3.1493712200e+00     5.9613712200e+00
         C     3.3737131000e-01     5.9613712500e+00     3.3737125000e-01
         C     3.1493712600e+00     5.9613712100e+00     3.1493711800e+00
         C     3.3737126000e-01     8.7733711900e+00     3.1493712100e+00
         C     3.1493712300e+00     8.7733712200e+00     3.3737122000e-01
         C     3.3737131000e-01     5.9613712500e+00     5.9613712500e+00
         C     3.1493712600e+00     5.9613712100e+00     8.7733711800e+00
         C     3.3737126000e-01     8.7733711900e+00     8.7733712100e+00
         C     3.1493712300e+00     8.7733712200e+00     5.9613712200e+00
         C     5.9613713100e+00     3.3737125000e-01     3.3737125000e-01
         C     8.7733712600e+00     3.3737121000e-01     3.1493711800e+00
         C     5.9613712600e+00     3.1493711900e+00     3.1493712100e+00
         C     8.7733712300e+00     3.1493712200e+00     3.3737122000e-01
         C     5.9613713100e+00     3.3737125000e-01     5.9613712500e+00
         C     8.7733712600e+00     3.3737121000e-01     8.7733711800e+00
         C     5.9613712600e+00     3.1493711900e+00     8.7733712100e+00
         C     8.7733712300e+00     3.1493712200e+00     5.9613712200e+00
         C     5.9613713100e+00     5.9613712500e+00     3.3737125000e-01
         C     8.7733712600e+00     5.9613712100e+00     3.1493711800e+00
         C     5.9613712600e+00     8.7733711900e+00     3.1493712100e+00
         C     8.7733712300e+00     8.7733712200e+00     3.3737122000e-01
         C     5.9613713100e+00     5.9613712500e+00     5.9613712500e+00
         C     8.7733712600e+00     5.9613712100e+00     8.7733711800e+00
         C     5.9613712600e+00     8.7733711900e+00     8.7733712100e+00
         C     8.7733712300e+00     8.7733712200e+00     5.9613712200e+00
         O     1.0121137700e+00     1.0121136700e+00     1.0121137000e+00
         O     5.2866287400e+00     5.2866287400e+00     5.2866287100e+00
         O     2.4746287800e+00     5.2866287900e+00     3.8241137200e+00
         O     3.8241137100e+00     1.0121136500e+00     2.4746287100e+00
         O     5.2866286200e+00     3.8241138400e+00     2.4746285400e+00
         O     1.0121139100e+00     2.4746285900e+00     3.8241138600e+00
         O     3.8241136400e+00     2.4746287500e+00     5.2866287800e+00
         O     2.4746288700e+00     3.8241136400e+00     1.0121136600e+00
         O     1.0121137700e+00     1.0121136700e+00     6.6361137000e+00
         O     5.2866287400e+00     5.2866287400e+00     1.0910628710e+01
         O     2.4746287800e+00     5.2866287900e+00     9.4481137200e+00
         O     3.8241137100e+00     1.0121136500e+00     8.0986287100e+00
         O     5.2866286200e+00     3.8241138400e+00     8.0986285400e+00
         O     1.0121139100e+00     2.4746285900e+00     9.4481138600e+00
         O     3.8241136400e+00     2.4746287500e+00     1.0910628780e+01
         O     2.4746288700e+00     3.8241136400e+00     6.6361136600e+00
         O     1.0121137700e+00     6.6361136700e+00     1.0121137000e+00
         O     5.2866287400e+00     1.0910628740e+01     5.2866287100e+00
         O     2.4746287800e+00     1.0910628790e+01     3.8241137200e+00
         O     3.8241137100e+00     6.6361136500e+00     2.4746287100e+00
         O     5.2866286200e+00     9.4481138400e+00     2.4746285400e+00
         O     1.0121139100e+00     8.0986285900e+00     3.8241138600e+00
         O     3.8241136400e+00     8.0986287500e+00     5.2866287800e+00
         O     2.4746288700e+00     9.4481136400e+00     1.0121136600e+00
         O     1.0121137700e+00     6.6361136700e+00     6.6361137000e+00
         O     5.2866287400e+00     1.0910628740e+01     1.0910628710e+01
         O     2.4746287800e+00     1.0910628790e+01     9.4481137200e+00
         O     3.8241137100e+00     6.6361136500e+00     8.0986287100e+00
         O     5.2866286200e+00     9.4481138400e+00     8.0986285400e+00
         O     1.0121139100e+00     8.0986285900e+00     9.4481138600e+00
         O     3.8241136400e+00     8.0986287500e+00     1.0910628780e+01
         O     2.4746288700e+00     9.4481136400e+00     6.6361136600e+00
         O     6.6361137700e+00     1.0121136700e+00     1.0121137000e+00
         O     1.0910628740e+01     5.2866287400e+00     5.2866287100e+00
         O     8.0986287800e+00     5.2866287900e+00     3.8241137200e+00
         O     9.4481137100e+00     1.0121136500e+00     2.4746287100e+00
         O     1.0910628620e+01     3.8241138400e+00     2.4746285400e+00
         O     6.6361139100e+00     2.4746285900e+00     3.8241138600e+00
         O     9.4481136400e+00     2.4746287500e+00     5.2866287800e+00
         O     8.0986288700e+00     3.8241136400e+00     1.0121136600e+00
         O     6.6361137700e+00     1.0121136700e+00     6.6361137000e+00
         O     1.0910628740e+01     5.2866287400e+00     1.0910628710e+01
         O     8.0986287800e+00     5.2866287900e+00     9.4481137200e+00
         O     9.4481137100e+00     1.0121136500e+00     8.0986287100e+00
         O     1.0910628620e+01     3.8241138400e+00     8.0986285400e+00
         O     6.6361139100e+00     2.4746285900e+00     9.4481138600e+00
         O     9.4481136400e+00     2.4746287500e+00     1.0910628780e+01
         O     8.0986288700e+00     3.8241136400e+00     6.6361136600e+00
         O     6.6361137700e+00     6.6361136700e+00     1.0121137000e+00
         O     1.0910628740e+01     1.0910628740e+01     5.2866287100e+00
         O     8.0986287800e+00     1.0910628790e+01     3.8241137200e+00
         O     9.4481137100e+00     6.6361136500e+00     2.4746287100e+00
         O     1.0910628620e+01     9.4481138400e+00     2.4746285400e+00
         O     6.6361139100e+00     8.0986285900e+00     3.8241138600e+00
         O     9.4481136400e+00     8.0986287500e+00     5.2866287800e+00
         O     8.0986288700e+00     9.4481136400e+00     1.0121136600e+00
         O     6.6361137700e+00     6.6361136700e+00     6.6361137000e+00
         O     1.0910628740e+01     1.0910628740e+01     1.0910628710e+01
         O     8.0986287800e+00     1.0910628790e+01     9.4481137200e+00
         O     9.4481137100e+00     6.6361136500e+00     8.0986287100e+00
         O     1.0910628620e+01     9.4481138400e+00     8.0986285400e+00
         O     6.6361139100e+00     8.0986285900e+00     9.4481138600e+00
         O     9.4481136400e+00     8.0986287500e+00     1.0910628780e+01
         O     8.0986288700e+00     9.4481136400e+00     6.6361136600e+00
