8
# CELL(GENH):   25.00000    0.00000    0.00000    0.00000   25.00000    0.00000    0.00000    0.00000   25.00000 positions{angstrom} cell{angstrom}
         C     1.2865870000e+01     1.2095690000e+01     1.1953115000e+01
         C     1.2134080000e+01     1.2903740000e+01     1.3046735000e+01
         H     1.1774160000e+01     1.0714110000e+01     1.2577095000e+01
         H     1.3225050000e+01     1.4285890000e+01     1.2422175000e+01
         O     1.3711970000e+01     1.2599690000e+01     1.1248995000e+01
         O     1.1288030000e+01     1.2400320000e+01     1.3751005000e+01
         O     1.2464690000e+01     1.0825900000e+01     1.1883455000e+01
         O     1.2534460000e+01     1.4173650000e+01     1.3115425000e+01
