320
# CELL(GENH):   13.71200    0.00000    0.00000    0.00000   13.25600    0.00000    0.00000    0.00000   18.29400 positions{angstrom} cell{angstrom}
         C     9.9084076000e-01     4.9271138000e-01     2.1475042800e+00
         C     5.8651590200e+00     6.1353259200e+00     6.9994961300e+00
         C     2.4371602100e+00     6.1353027200e+00     6.7210253300e+00
         C     4.4188542600e+00     4.9271529000e-01     2.4259872400e+00
         C     5.8651527700e+00     3.8067012300e+00     2.4259472800e+00
         C     9.9084508000e-01     2.8213317800e+00     6.7210524100e+00
         C     4.4188103400e+00     2.8213223900e+00     6.9994463100e+00
         C     2.4371777900e+00     3.8066997900e+00     2.1475746900e+00
         C     9.9084076000e-01     4.9271138000e-01     1.1294504280e+01
         C     5.8651590200e+00     6.1353259200e+00     1.6146496130e+01
         C     2.4371602100e+00     6.1353027200e+00     1.5868025330e+01
         C     4.4188542600e+00     4.9271529000e-01     1.1572987240e+01
         C     5.8651527700e+00     3.8067012300e+00     1.1572947280e+01
         C     9.9084508000e-01     2.8213317800e+00     1.5868052410e+01
         C     4.4188103400e+00     2.8213223900e+00     1.6146446310e+01
         C     2.4371777900e+00     3.8066997900e+00     1.1294574690e+01
         C     9.9084076000e-01     7.1207113800e+00     2.1475042800e+00
         C     5.8651590200e+00     1.2763325920e+01     6.9994961300e+00
         C     2.4371602100e+00     1.2763302720e+01     6.7210253300e+00
         C     4.4188542600e+00     7.1207152900e+00     2.4259872400e+00
         C     5.8651527700e+00     1.0434701230e+01     2.4259472800e+00
         C     9.9084508000e-01     9.4493317800e+00     6.7210524100e+00
         C     4.4188103400e+00     9.4493223900e+00     6.9994463100e+00
         C     2.4371777900e+00     1.0434699790e+01     2.1475746900e+00
         C     9.9084076000e-01     7.1207113800e+00     1.1294504280e+01
         C     5.8651590200e+00     1.2763325920e+01     1.6146496130e+01
         C     2.4371602100e+00     1.2763302720e+01     1.5868025330e+01
         C     4.4188542600e+00     7.1207152900e+00     1.1572987240e+01
         C     5.8651527700e+00     1.0434701230e+01     1.1572947280e+01
         C     9.9084508000e-01     9.4493317800e+00     1.5868052410e+01
         C     4.4188103400e+00     9.4493223900e+00     1.6146446310e+01
         C     2.4371777900e+00     1.0434699790e+01     1.1294574690e+01
         C     7.8468407600e+00     4.9271138000e-01     2.1475042800e+00
         C     1.2721159020e+01     6.1353259200e+00     6.9994961300e+00
         C     9.2931602100e+00     6.1353027200e+00     6.7210253300e+00
         C     1.1274854260e+01     4.9271529000e-01     2.4259872400e+00
         C     1.2721152770e+01     3.8067012300e+00     2.4259472800e+00
         C     7.8468450800e+00     2.8213317800e+00     6.7210524100e+00
         C     1.1274810340e+01     2.8213223900e+00     6.9994463100e+00
         C     9.2931777900e+00     3.8066997900e+00     2.1475746900e+00
         C     7.8468407600e+00     4.9271138000e-01     1.1294504280e+01
         C     1.2721159020e+01     6.1353259200e+00     1.6146496130e+01
         C     9.2931602100e+00     6.1353027200e+00     1.5868025330e+01
         C     1.1274854260e+01     4.9271529000e-01     1.1572987240e+01
         C     1.2721152770e+01     3.8067012300e+00     1.1572947280e+01
         C     7.8468450800e+00     2.8213317800e+00     1.5868052410e+01
         C     1.1274810340e+01     2.8213223900e+00     1.6146446310e+01
         C     9.2931777900e+00     3.8066997900e+00     1.1294574690e+01
         C     7.8468407600e+00     7.1207113800e+00     2.1475042800e+00
         C     1.2721159020e+01     1.2763325920e+01     6.9994961300e+00
         C     9.2931602100e+00     1.2763302720e+01     6.7210253300e+00
         C     1.1274854260e+01     7.1207152900e+00     2.4259872400e+00
         C     1.2721152770e+01     1.0434701230e+01     2.4259472800e+00
         C     7.8468450800e+00     9.4493317800e+00     6.7210524100e+00
         C     1.1274810340e+01     9.4493223900e+00     6.9994463100e+00
         C     9.2931777900e+00     1.0434699790e+01     2.1475746900e+00
         C     7.8468407600e+00     7.1207113800e+00     1.1294504280e+01
         C     1.2721159020e+01     1.2763325920e+01     1.6146496130e+01
         C     9.2931602100e+00     1.2763302720e+01     1.5868025330e+01
         C     1.1274854260e+01     7.1207152900e+00     1.1572987240e+01
         C     1.2721152770e+01     1.0434701230e+01     1.1572947280e+01
         C     7.8468450800e+00     9.4493317800e+00     1.5868052410e+01
         C     1.1274810340e+01     9.4493223900e+00     1.6146446310e+01
         C     9.2931777900e+00     1.0434699790e+01     1.1294574690e+01
         H     1.4415571900e+00     6.7055139000e-01     1.7058773000e-01
         H     5.4144398500e+00     5.9574747400e+00     8.9764125200e+00
         H     1.9864854500e+00     5.9574627100e+00     4.7441410300e+00
         H     4.8695102000e+00     6.7058557000e-01     4.4028737800e+00
         H     5.4144796100e+00     3.9845905300e+00     4.4029152300e+00
         H     1.4415167300e+00     2.6434423000e+00     4.7440847500e+00
         H     4.8695358700e+00     2.6434904200e+00     8.9764134700e+00
         H     1.9864560100e+00     3.9845459500e+00     1.7058653000e-01
         H     3.1571373000e-01     1.8718053700e+00     8.6440283000e-01
         H     6.5402875000e+00     4.7562282900e+00     8.2825917500e+00
         H     3.1122350800e+00     4.7562722100e+00     5.4378817700e+00
         H     3.7437595100e+00     1.8717586500e+00     3.7091056100e+00
         H     6.5402834200e+00     5.1857968600e+00     3.7091209700e+00
         H     3.1571250000e-01     1.4422384000e+00     5.4378794300e+00
         H     3.7436763100e+00     1.4422016100e+00     8.2825826600e+00
         H     3.1123234800e+00     5.1858240000e+00     8.6441911000e-01
         H     1.4415571900e+00     6.7055139000e-01     9.3175877300e+00
         H     5.4144398500e+00     5.9574747400e+00     1.8123412520e+01
         H     1.9864854500e+00     5.9574627100e+00     1.3891141030e+01
         H     4.8695102000e+00     6.7058557000e-01     1.3549873780e+01
         H     5.4144796100e+00     3.9845905300e+00     1.3549915230e+01
         H     1.4415167300e+00     2.6434423000e+00     1.3891084750e+01
         H     4.8695358700e+00     2.6434904200e+00     1.8123413470e+01
         H     1.9864560100e+00     3.9845459500e+00     9.3175865300e+00
         H     3.1571373000e-01     1.8718053700e+00     1.0011402830e+01
         H     6.5402875000e+00     4.7562282900e+00     1.7429591750e+01
         H     3.1122350800e+00     4.7562722100e+00     1.4584881770e+01
         H     3.7437595100e+00     1.8717586500e+00     1.2856105610e+01
         H     6.5402834200e+00     5.1857968600e+00     1.2856120970e+01
         H     3.1571250000e-01     1.4422384000e+00     1.4584879430e+01
         H     3.7436763100e+00     1.4422016100e+00     1.7429582660e+01
         H     3.1123234800e+00     5.1858240000e+00     1.0011419110e+01
         H     1.4415571900e+00     7.2985513900e+00     1.7058773000e-01
         H     5.4144398500e+00     1.2585474740e+01     8.9764125200e+00
         H     1.9864854500e+00     1.2585462710e+01     4.7441410300e+00
         H     4.8695102000e+00     7.2985855700e+00     4.4028737800e+00
         H     5.4144796100e+00     1.0612590530e+01     4.4029152300e+00
         H     1.4415167300e+00     9.2714423000e+00     4.7440847500e+00
         H     4.8695358700e+00     9.2714904200e+00     8.9764134700e+00
         H     1.9864560100e+00     1.0612545950e+01     1.7058653000e-01
         H     3.1571373000e-01     8.4998053700e+00     8.6440283000e-01
         H     6.5402875000e+00     1.1384228290e+01     8.2825917500e+00
         H     3.1122350800e+00     1.1384272210e+01     5.4378817700e+00
         H     3.7437595100e+00     8.4997586500e+00     3.7091056100e+00
         H     6.5402834200e+00     1.1813796860e+01     3.7091209700e+00
         H     3.1571250000e-01     8.0702384000e+00     5.4378794300e+00
         H     3.7436763100e+00     8.0702016100e+00     8.2825826600e+00
         H     3.1123234800e+00     1.1813824000e+01     8.6441911000e-01
         H     1.4415571900e+00     7.2985513900e+00     9.3175877300e+00
         H     5.4144398500e+00     1.2585474740e+01     1.8123412520e+01
         H     1.9864854500e+00     1.2585462710e+01     1.3891141030e+01
         H     4.8695102000e+00     7.2985855700e+00     1.3549873780e+01
         H     5.4144796100e+00     1.0612590530e+01     1.3549915230e+01
         H     1.4415167300e+00     9.2714423000e+00     1.3891084750e+01
         H     4.8695358700e+00     9.2714904200e+00     1.8123413470e+01
         H     1.9864560100e+00     1.0612545950e+01     9.3175865300e+00
         H     3.1571373000e-01     8.4998053700e+00     1.0011402830e+01
         H     6.5402875000e+00     1.1384228290e+01     1.7429591750e+01
         H     3.1122350800e+00     1.1384272210e+01     1.4584881770e+01
         H     3.7437595100e+00     8.4997586500e+00     1.2856105610e+01
         H     6.5402834200e+00     1.1813796860e+01     1.2856120970e+01
         H     3.1571250000e-01     8.0702384000e+00     1.4584879430e+01
         H     3.7436763100e+00     8.0702016100e+00     1.7429582660e+01
         H     3.1123234800e+00     1.1813824000e+01     1.0011419110e+01
         H     8.2975571900e+00     6.7055139000e-01     1.7058773000e-01
         H     1.2270439850e+01     5.9574747400e+00     8.9764125200e+00
         H     8.8424854500e+00     5.9574627100e+00     4.7441410300e+00
         H     1.1725510200e+01     6.7058557000e-01     4.4028737800e+00
         H     1.2270479610e+01     3.9845905300e+00     4.4029152300e+00
         H     8.2975167300e+00     2.6434423000e+00     4.7440847500e+00
         H     1.1725535870e+01     2.6434904200e+00     8.9764134700e+00
         H     8.8424560100e+00     3.9845459500e+00     1.7058653000e-01
         H     7.1717137300e+00     1.8718053700e+00     8.6440283000e-01
         H     1.3396287500e+01     4.7562282900e+00     8.2825917500e+00
         H     9.9682350800e+00     4.7562722100e+00     5.4378817700e+00
         H     1.0599759510e+01     1.8717586500e+00     3.7091056100e+00
         H     1.3396283420e+01     5.1857968600e+00     3.7091209700e+00
         H     7.1717125000e+00     1.4422384000e+00     5.4378794300e+00
         H     1.0599676310e+01     1.4422016100e+00     8.2825826600e+00
         H     9.9683234800e+00     5.1858240000e+00     8.6441911000e-01
         H     8.2975571900e+00     6.7055139000e-01     9.3175877300e+00
         H     1.2270439850e+01     5.9574747400e+00     1.8123412520e+01
         H     8.8424854500e+00     5.9574627100e+00     1.3891141030e+01
         H     1.1725510200e+01     6.7058557000e-01     1.3549873780e+01
         H     1.2270479610e+01     3.9845905300e+00     1.3549915230e+01
         H     8.2975167300e+00     2.6434423000e+00     1.3891084750e+01
         H     1.1725535870e+01     2.6434904200e+00     1.8123413470e+01
         H     8.8424560100e+00     3.9845459500e+00     9.3175865300e+00
         H     7.1717137300e+00     1.8718053700e+00     1.0011402830e+01
         H     1.3396287500e+01     4.7562282900e+00     1.7429591750e+01
         H     9.9682350800e+00     4.7562722100e+00     1.4584881770e+01
         H     1.0599759510e+01     1.8717586500e+00     1.2856105610e+01
         H     1.3396283420e+01     5.1857968600e+00     1.2856120970e+01
         H     7.1717125000e+00     1.4422384000e+00     1.4584879430e+01
         H     1.0599676310e+01     1.4422016100e+00     1.7429582660e+01
         H     9.9683234800e+00     5.1858240000e+00     1.0011419110e+01
         H     8.2975571900e+00     7.2985513900e+00     1.7058773000e-01
         H     1.2270439850e+01     1.2585474740e+01     8.9764125200e+00
         H     8.8424854500e+00     1.2585462710e+01     4.7441410300e+00
         H     1.1725510200e+01     7.2985855700e+00     4.4028737800e+00
         H     1.2270479610e+01     1.0612590530e+01     4.4029152300e+00
         H     8.2975167300e+00     9.2714423000e+00     4.7440847500e+00
         H     1.1725535870e+01     9.2714904200e+00     8.9764134700e+00
         H     8.8424560100e+00     1.0612545950e+01     1.7058653000e-01
         H     7.1717137300e+00     8.4998053700e+00     8.6440283000e-01
         H     1.3396287500e+01     1.1384228290e+01     8.2825917500e+00
         H     9.9682350800e+00     1.1384272210e+01     5.4378817700e+00
         H     1.0599759510e+01     8.4997586500e+00     3.7091056100e+00
         H     1.3396283420e+01     1.1813796860e+01     3.7091209700e+00
         H     7.1717125000e+00     8.0702384000e+00     5.4378794300e+00
         H     1.0599676310e+01     8.0702016100e+00     8.2825826600e+00
         H     9.9683234800e+00     1.1813824000e+01     8.6441911000e-01
         H     8.2975571900e+00     7.2985513900e+00     9.3175877300e+00
         H     1.2270439850e+01     1.2585474740e+01     1.8123412520e+01
         H     8.8424854500e+00     1.2585462710e+01     1.3891141030e+01
         H     1.1725510200e+01     7.2985855700e+00     1.3549873780e+01
         H     1.2270479610e+01     1.0612590530e+01     1.3549915230e+01
         H     8.2975167300e+00     9.2714423000e+00     1.3891084750e+01
         H     1.1725535870e+01     9.2714904200e+00     1.8123413470e+01
         H     8.8424560100e+00     1.0612545950e+01     9.3175865300e+00
         H     7.1717137300e+00     8.4998053700e+00     1.0011402830e+01
         H     1.3396287500e+01     1.1384228290e+01     1.7429591750e+01
         H     9.9682350800e+00     1.1384272210e+01     1.4584881770e+01
         H     1.0599759510e+01     8.4997586500e+00     1.2856105610e+01
         H     1.3396283420e+01     1.1813796860e+01     1.2856120970e+01
         H     7.1717125000e+00     8.0702384000e+00     1.4584879430e+01
         H     1.0599676310e+01     8.0702016100e+00     1.7429582660e+01
         H     9.9683234800e+00     1.1813824000e+01     1.0011419110e+01
         N     9.8678911000e-01     1.1012124300e+00     9.9077714000e-01
         N     5.8692130500e+00     5.5268229900e+00     8.1562204000e+00
         N     2.4412317100e+00     5.5268324300e+00     5.5642778400e+00
         N     4.4147743500e+00     1.1012044500e+00     3.5827246000e+00
         N     5.8692301300e+00     4.4152204900e+00     3.5827323200e+00
         N     9.8677058000e-01     2.2128103600e+00     5.5642692100e+00
         N     4.4147747000e+00     2.2128105800e+00     8.1562219600e+00
         N     2.4412110900e+00     4.4152212200e+00     9.9079308000e-01
         N     1.0041880700e+00     6.6093808700e+00     3.2038181100e+00
         N     5.8518087100e+00     1.8656560000e-02     5.9431805200e+00
         N     2.4238164100e+00     1.8595040000e-02     7.7772781700e+00
         N     4.4322098900e+00     6.6094049600e+00     1.3697423000e+00
         N     5.8518334500e+00     3.2953707500e+00     1.3697415500e+00
         N     1.0041624100e+00     3.3326639600e+00     7.7772578500e+00
         N     4.4321781900e+00     3.3325959500e+00     5.9431483800e+00
         N     2.4238459300e+00     3.2953942000e+00     3.2038655800e+00
         N     9.8678911000e-01     1.1012124300e+00     1.0137777140e+01
         N     5.8692130500e+00     5.5268229900e+00     1.7303220400e+01
         N     2.4412317100e+00     5.5268324300e+00     1.4711277840e+01
         N     4.4147743500e+00     1.1012044500e+00     1.2729724600e+01
         N     5.8692301300e+00     4.4152204900e+00     1.2729732320e+01
         N     9.8677058000e-01     2.2128103600e+00     1.4711269210e+01
         N     4.4147747000e+00     2.2128105800e+00     1.7303221960e+01
         N     2.4412110900e+00     4.4152212200e+00     1.0137793080e+01
         N     1.0041880700e+00     6.6093808700e+00     1.2350818110e+01
         N     5.8518087100e+00     1.8656560000e-02     1.5090180520e+01
         N     2.4238164100e+00     1.8595040000e-02     1.6924278170e+01
         N     4.4322098900e+00     6.6094049600e+00     1.0516742300e+01
         N     5.8518334500e+00     3.2953707500e+00     1.0516741550e+01
         N     1.0041624100e+00     3.3326639600e+00     1.6924257850e+01
         N     4.4321781900e+00     3.3325959500e+00     1.5090148380e+01
         N     2.4238459300e+00     3.2953942000e+00     1.2350865580e+01
         N     9.8678911000e-01     7.7292124300e+00     9.9077714000e-01
         N     5.8692130500e+00     1.2154822990e+01     8.1562204000e+00
         N     2.4412317100e+00     1.2154832430e+01     5.5642778400e+00
         N     4.4147743500e+00     7.7292044500e+00     3.5827246000e+00
         N     5.8692301300e+00     1.1043220490e+01     3.5827323200e+00
         N     9.8677058000e-01     8.8408103600e+00     5.5642692100e+00
         N     4.4147747000e+00     8.8408105800e+00     8.1562219600e+00
         N     2.4412110900e+00     1.1043221220e+01     9.9079308000e-01
         N     1.0041880700e+00     1.3237380870e+01     3.2038181100e+00
         N     5.8518087100e+00     6.6466565600e+00     5.9431805200e+00
         N     2.4238164100e+00     6.6465950400e+00     7.7772781700e+00
         N     4.4322098900e+00     1.3237404960e+01     1.3697423000e+00
         N     5.8518334500e+00     9.9233707500e+00     1.3697415500e+00
         N     1.0041624100e+00     9.9606639600e+00     7.7772578500e+00
         N     4.4321781900e+00     9.9605959500e+00     5.9431483800e+00
         N     2.4238459300e+00     9.9233942000e+00     3.2038655800e+00
         N     9.8678911000e-01     7.7292124300e+00     1.0137777140e+01
         N     5.8692130500e+00     1.2154822990e+01     1.7303220400e+01
         N     2.4412317100e+00     1.2154832430e+01     1.4711277840e+01
         N     4.4147743500e+00     7.7292044500e+00     1.2729724600e+01
         N     5.8692301300e+00     1.1043220490e+01     1.2729732320e+01
         N     9.8677058000e-01     8.8408103600e+00     1.4711269210e+01
         N     4.4147747000e+00     8.8408105800e+00     1.7303221960e+01
         N     2.4412110900e+00     1.1043221220e+01     1.0137793080e+01
         N     1.0041880700e+00     1.3237380870e+01     1.2350818110e+01
         N     5.8518087100e+00     6.6466565600e+00     1.5090180520e+01
         N     2.4238164100e+00     6.6465950400e+00     1.6924278170e+01
         N     4.4322098900e+00     1.3237404960e+01     1.0516742300e+01
         N     5.8518334500e+00     9.9233707500e+00     1.0516741550e+01
         N     1.0041624100e+00     9.9606639600e+00     1.6924257850e+01
         N     4.4321781900e+00     9.9605959500e+00     1.5090148380e+01
         N     2.4238459300e+00     9.9233942000e+00     1.2350865580e+01
         N     7.8427891100e+00     1.1012124300e+00     9.9077714000e-01
         N     1.2725213050e+01     5.5268229900e+00     8.1562204000e+00
         N     9.2972317100e+00     5.5268324300e+00     5.5642778400e+00
         N     1.1270774350e+01     1.1012044500e+00     3.5827246000e+00
         N     1.2725230130e+01     4.4152204900e+00     3.5827323200e+00
         N     7.8427705800e+00     2.2128103600e+00     5.5642692100e+00
         N     1.1270774700e+01     2.2128105800e+00     8.1562219600e+00
         N     9.2972110900e+00     4.4152212200e+00     9.9079308000e-01
         N     7.8601880700e+00     6.6093808700e+00     3.2038181100e+00
         N     1.2707808710e+01     1.8656560000e-02     5.9431805200e+00
         N     9.2798164100e+00     1.8595040000e-02     7.7772781700e+00
         N     1.1288209890e+01     6.6094049600e+00     1.3697423000e+00
         N     1.2707833450e+01     3.2953707500e+00     1.3697415500e+00
         N     7.8601624100e+00     3.3326639600e+00     7.7772578500e+00
         N     1.1288178190e+01     3.3325959500e+00     5.9431483800e+00
         N     9.2798459300e+00     3.2953942000e+00     3.2038655800e+00
         N     7.8427891100e+00     1.1012124300e+00     1.0137777140e+01
         N     1.2725213050e+01     5.5268229900e+00     1.7303220400e+01
         N     9.2972317100e+00     5.5268324300e+00     1.4711277840e+01
         N     1.1270774350e+01     1.1012044500e+00     1.2729724600e+01
         N     1.2725230130e+01     4.4152204900e+00     1.2729732320e+01
         N     7.8427705800e+00     2.2128103600e+00     1.4711269210e+01
         N     1.1270774700e+01     2.2128105800e+00     1.7303221960e+01
         N     9.2972110900e+00     4.4152212200e+00     1.0137793080e+01
         N     7.8601880700e+00     6.6093808700e+00     1.2350818110e+01
         N     1.2707808710e+01     1.8656560000e-02     1.5090180520e+01
         N     9.2798164100e+00     1.8595040000e-02     1.6924278170e+01
         N     1.1288209890e+01     6.6094049600e+00     1.0516742300e+01
         N     1.2707833450e+01     3.2953707500e+00     1.0516741550e+01
         N     7.8601624100e+00     3.3326639600e+00     1.6924257850e+01
         N     1.1288178190e+01     3.3325959500e+00     1.5090148380e+01
         N     9.2798459300e+00     3.2953942000e+00     1.2350865580e+01
         N     7.8427891100e+00     7.7292124300e+00     9.9077714000e-01
         N     1.2725213050e+01     1.2154822990e+01     8.1562204000e+00
         N     9.2972317100e+00     1.2154832430e+01     5.5642778400e+00
         N     1.1270774350e+01     7.7292044500e+00     3.5827246000e+00
         N     1.2725230130e+01     1.1043220490e+01     3.5827323200e+00
         N     7.8427705800e+00     8.8408103600e+00     5.5642692100e+00
         N     1.1270774700e+01     8.8408105800e+00     8.1562219600e+00
         N     9.2972110900e+00     1.1043221220e+01     9.9079308000e-01
         N     7.8601880700e+00     1.3237380870e+01     3.2038181100e+00
         N     1.2707808710e+01     6.6466565600e+00     5.9431805200e+00
         N     9.2798164100e+00     6.6465950400e+00     7.7772781700e+00
         N     1.1288209890e+01     1.3237404960e+01     1.3697423000e+00
         N     1.2707833450e+01     9.9233707500e+00     1.3697415500e+00
         N     7.8601624100e+00     9.9606639600e+00     7.7772578500e+00
         N     1.1288178190e+01     9.9605959500e+00     5.9431483800e+00
         N     9.2798459300e+00     9.9233942000e+00     3.2038655800e+00
         N     7.8427891100e+00     7.7292124300e+00     1.0137777140e+01
         N     1.2725213050e+01     1.2154822990e+01     1.7303220400e+01
         N     9.2972317100e+00     1.2154832430e+01     1.4711277840e+01
         N     1.1270774350e+01     7.7292044500e+00     1.2729724600e+01
         N     1.2725230130e+01     1.1043220490e+01     1.2729732320e+01
         N     7.8427705800e+00     8.8408103600e+00     1.4711269210e+01
         N     1.1270774700e+01     8.8408105800e+00     1.7303221960e+01
         N     9.2972110900e+00     1.1043221220e+01     1.0137793080e+01
         N     7.8601880700e+00     1.3237380870e+01     1.2350818110e+01
         N     1.2707808710e+01     6.6466565600e+00     1.5090180520e+01
         N     9.2798164100e+00     6.6465950400e+00     1.6924278170e+01
         N     1.1288209890e+01     1.3237404960e+01     1.0516742300e+01
         N     1.2707833450e+01     9.9233707500e+00     1.0516741550e+01
         N     7.8601624100e+00     9.9606639600e+00     1.6924257850e+01
         N     1.1288178190e+01     9.9605959500e+00     1.5090148380e+01
         N     9.2798459300e+00     9.9233942000e+00     1.2350865580e+01
