13
# CELL(GENH):   25.00000    0.00000    0.00000    0.00000   25.00000    0.00000    0.00000    0.00000   25.00000 positions{angstrom} cell{angstrom}
         C     1.1703525000e+01     1.3690710000e+01     1.2654590000e+01
         C     1.3675065000e+01     1.2370410000e+01     1.2589750000e+01
         C     1.4065595000e+01     1.0920060000e+01     1.2411720000e+01
         N     1.0336495000e+01     1.3631330000e+01     1.2625030000e+01
         O     1.2359475000e+01     1.4703490000e+01     1.2813530000e+01
         O     1.2226125000e+01     1.2435780000e+01     1.2513250000e+01
         H     9.8440050000e+00     1.4508330000e+01     1.2540080000e+01
         H     9.8811750000e+00     1.2787260000e+01     1.2306690000e+01
         H     1.3993065000e+01     1.2768330000e+01     1.3561300000e+01
         H     1.4098785000e+01     1.3012690000e+01     1.1807930000e+01
         H     1.5155995000e+01     1.0822170000e+01     1.2465490000e+01
         H     1.3624105000e+01     1.0296510000e+01     1.3197100000e+01
         H     1.3733155000e+01     1.0541330000e+01     1.1438700000e+01
