256
# CELL(GENH):   13.15100    0.00000    0.00000    0.00000   15.69200    0.00000    0.00000    0.00000   11.52400 positions{angstrom} cell{angstrom}
         C     4.4074191400e+00     2.7491362100e+00     1.2116433700e+00
         C     8.7435732100e+00     1.1738937500e+00     4.0926264400e+00
         C     1.0982963820e+01     3.1353061600e+00     1.2116990700e+00
         C     2.1680341600e+00     7.8771224000e-01     4.0927152200e+00
         C     5.3982598600e+00     2.4250422500e+00     2.2875407400e+00
         C     7.7527356900e+00     1.4979702300e+00     5.1685310900e+00
         C     1.1973822090e+01     3.4594290000e+00     2.2875782300e+00
         C     1.1771726900e+00     4.6357601000e-01     5.1685891900e+00
         C     4.4074191400e+00     2.7491362100e+00     6.9736433700e+00
         C     8.7435732100e+00     1.1738937500e+00     9.8546264400e+00
         C     1.0982963820e+01     3.1353061600e+00     6.9736990700e+00
         C     2.1680341600e+00     7.8771224000e-01     9.8547152200e+00
         C     5.3982598600e+00     2.4250422500e+00     8.0495407400e+00
         C     7.7527356900e+00     1.4979702300e+00     1.0930531090e+01
         C     1.1973822090e+01     3.4594290000e+00     8.0495782300e+00
         C     1.1771726900e+00     4.6357601000e-01     1.0930589190e+01
         C     4.4074191400e+00     6.6721362100e+00     1.2116433700e+00
         C     8.7435732100e+00     5.0968937500e+00     4.0926264400e+00
         C     1.0982963820e+01     7.0583061600e+00     1.2116990700e+00
         C     2.1680341600e+00     4.7107122400e+00     4.0927152200e+00
         C     5.3982598600e+00     6.3480422500e+00     2.2875407400e+00
         C     7.7527356900e+00     5.4209702300e+00     5.1685310900e+00
         C     1.1973822090e+01     7.3824290000e+00     2.2875782300e+00
         C     1.1771726900e+00     4.3865760100e+00     5.1685891900e+00
         C     4.4074191400e+00     6.6721362100e+00     6.9736433700e+00
         C     8.7435732100e+00     5.0968937500e+00     9.8546264400e+00
         C     1.0982963820e+01     7.0583061600e+00     6.9736990700e+00
         C     2.1680341600e+00     4.7107122400e+00     9.8547152200e+00
         C     5.3982598600e+00     6.3480422500e+00     8.0495407400e+00
         C     7.7527356900e+00     5.4209702300e+00     1.0930531090e+01
         C     1.1973822090e+01     7.3824290000e+00     8.0495782300e+00
         C     1.1771726900e+00     4.3865760100e+00     1.0930589190e+01
         C     4.4074191400e+00     1.0595136210e+01     1.2116433700e+00
         C     8.7435732100e+00     9.0198937500e+00     4.0926264400e+00
         C     1.0982963820e+01     1.0981306160e+01     1.2116990700e+00
         C     2.1680341600e+00     8.6337122400e+00     4.0927152200e+00
         C     5.3982598600e+00     1.0271042250e+01     2.2875407400e+00
         C     7.7527356900e+00     9.3439702300e+00     5.1685310900e+00
         C     1.1973822090e+01     1.1305429000e+01     2.2875782300e+00
         C     1.1771726900e+00     8.3095760100e+00     5.1685891900e+00
         C     4.4074191400e+00     1.0595136210e+01     6.9736433700e+00
         C     8.7435732100e+00     9.0198937500e+00     9.8546264400e+00
         C     1.0982963820e+01     1.0981306160e+01     6.9736990700e+00
         C     2.1680341600e+00     8.6337122400e+00     9.8547152200e+00
         C     5.3982598600e+00     1.0271042250e+01     8.0495407400e+00
         C     7.7527356900e+00     9.3439702300e+00     1.0930531090e+01
         C     1.1973822090e+01     1.1305429000e+01     8.0495782300e+00
         C     1.1771726900e+00     8.3095760100e+00     1.0930589190e+01
         C     4.4074191400e+00     1.4518136210e+01     1.2116433700e+00
         C     8.7435732100e+00     1.2942893750e+01     4.0926264400e+00
         C     1.0982963820e+01     1.4904306160e+01     1.2116990700e+00
         C     2.1680341600e+00     1.2556712240e+01     4.0927152200e+00
         C     5.3982598600e+00     1.4194042250e+01     2.2875407400e+00
         C     7.7527356900e+00     1.3266970230e+01     5.1685310900e+00
         C     1.1973822090e+01     1.5228429000e+01     2.2875782300e+00
         C     1.1771726900e+00     1.2232576010e+01     5.1685891900e+00
         C     4.4074191400e+00     1.4518136210e+01     6.9736433700e+00
         C     8.7435732100e+00     1.2942893750e+01     9.8546264400e+00
         C     1.0982963820e+01     1.4904306160e+01     6.9736990700e+00
         C     2.1680341600e+00     1.2556712240e+01     9.8547152200e+00
         C     5.3982598600e+00     1.4194042250e+01     8.0495407400e+00
         C     7.7527356900e+00     1.3266970230e+01     1.0930531090e+01
         C     1.1973822090e+01     1.5228429000e+01     8.0495782300e+00
         C     1.1771726900e+00     1.2232576010e+01     1.0930589190e+01
         H     4.1945234400e+00     3.7279728700e+00     5.3086213500e+00
         H     8.9564734000e+00     1.9506169000e-01     2.4276016400e+00
         H     1.0770069150e+01     2.1564654900e+00     5.3086788200e+00
         H     2.3809256500e+00     1.7665639500e+00     2.4276993600e+00
         H     4.9128483200e+00     1.8747871400e+00     3.0968473200e+00
         H     8.2381457400e+00     2.0482216900e+00     2.1584139000e-01
         H     1.1488400100e+01     8.6696000000e-02     3.0968690800e+00
         H     1.6625929700e+00     3.8363040000e+00     2.1587789000e-01
         H     6.2065183800e+00     1.8161292800e+00     1.8599785700e+00
         H     6.9444688200e+00     2.1068825300e+00     4.7409813300e+00
         H     1.2782056780e+01     1.4535254000e-01     1.8599942900e+00
         H     3.6894322000e-01     3.7776558800e+00     4.7409934400e+00
         H     5.8576274000e+00     3.3464083800e+00     2.6650991300e+00
         H     7.2933779600e+00     5.7659672000e-01     5.5460828000e+00
         H     1.2433180670e+01     2.5380783300e+00     2.6651489400e+00
         H     7.1780489000e-01     1.3849243800e+00     5.5461586100e+00
         H     4.1945234400e+00     3.7279728700e+00     1.1070621350e+01
         H     8.9564734000e+00     1.9506169000e-01     8.1896016400e+00
         H     1.0770069150e+01     2.1564654900e+00     1.1070678820e+01
         H     2.3809256500e+00     1.7665639500e+00     8.1896993600e+00
         H     4.9128483200e+00     1.8747871400e+00     8.8588473200e+00
         H     8.2381457400e+00     2.0482216900e+00     5.9778413900e+00
         H     1.1488400100e+01     8.6696000000e-02     8.8588690800e+00
         H     1.6625929700e+00     3.8363040000e+00     5.9778778900e+00
         H     6.2065183800e+00     1.8161292800e+00     7.6219785700e+00
         H     6.9444688200e+00     2.1068825300e+00     1.0502981330e+01
         H     1.2782056780e+01     1.4535254000e-01     7.6219942900e+00
         H     3.6894322000e-01     3.7776558800e+00     1.0502993440e+01
         H     5.8576274000e+00     3.3464083800e+00     8.4270991300e+00
         H     7.2933779600e+00     5.7659672000e-01     1.1308082800e+01
         H     1.2433180670e+01     2.5380783300e+00     8.4271489400e+00
         H     7.1780489000e-01     1.3849243800e+00     1.1308158610e+01
         H     4.1945234400e+00     7.6509728700e+00     5.3086213500e+00
         H     8.9564734000e+00     4.1180616900e+00     2.4276016400e+00
         H     1.0770069150e+01     6.0794654900e+00     5.3086788200e+00
         H     2.3809256500e+00     5.6895639500e+00     2.4276993600e+00
         H     4.9128483200e+00     5.7977871400e+00     3.0968473200e+00
         H     8.2381457400e+00     5.9712216900e+00     2.1584139000e-01
         H     1.1488400100e+01     4.0096960000e+00     3.0968690800e+00
         H     1.6625929700e+00     7.7593040000e+00     2.1587789000e-01
         H     6.2065183800e+00     5.7391292800e+00     1.8599785700e+00
         H     6.9444688200e+00     6.0298825300e+00     4.7409813300e+00
         H     1.2782056780e+01     4.0683525400e+00     1.8599942900e+00
         H     3.6894322000e-01     7.7006558800e+00     4.7409934400e+00
         H     5.8576274000e+00     7.2694083800e+00     2.6650991300e+00
         H     7.2933779600e+00     4.4995967200e+00     5.5460828000e+00
         H     1.2433180670e+01     6.4610783300e+00     2.6651489400e+00
         H     7.1780489000e-01     5.3079243800e+00     5.5461586100e+00
         H     4.1945234400e+00     7.6509728700e+00     1.1070621350e+01
         H     8.9564734000e+00     4.1180616900e+00     8.1896016400e+00
         H     1.0770069150e+01     6.0794654900e+00     1.1070678820e+01
         H     2.3809256500e+00     5.6895639500e+00     8.1896993600e+00
         H     4.9128483200e+00     5.7977871400e+00     8.8588473200e+00
         H     8.2381457400e+00     5.9712216900e+00     5.9778413900e+00
         H     1.1488400100e+01     4.0096960000e+00     8.8588690800e+00
         H     1.6625929700e+00     7.7593040000e+00     5.9778778900e+00
         H     6.2065183800e+00     5.7391292800e+00     7.6219785700e+00
         H     6.9444688200e+00     6.0298825300e+00     1.0502981330e+01
         H     1.2782056780e+01     4.0683525400e+00     7.6219942900e+00
         H     3.6894322000e-01     7.7006558800e+00     1.0502993440e+01
         H     5.8576274000e+00     7.2694083800e+00     8.4270991300e+00
         H     7.2933779600e+00     4.4995967200e+00     1.1308082800e+01
         H     1.2433180670e+01     6.4610783300e+00     8.4271489400e+00
         H     7.1780489000e-01     5.3079243800e+00     1.1308158610e+01
         H     4.1945234400e+00     1.1573972870e+01     5.3086213500e+00
         H     8.9564734000e+00     8.0410616900e+00     2.4276016400e+00
         H     1.0770069150e+01     1.0002465490e+01     5.3086788200e+00
         H     2.3809256500e+00     9.6125639500e+00     2.4276993600e+00
         H     4.9128483200e+00     9.7207871400e+00     3.0968473200e+00
         H     8.2381457400e+00     9.8942216900e+00     2.1584139000e-01
         H     1.1488400100e+01     7.9326960000e+00     3.0968690800e+00
         H     1.6625929700e+00     1.1682304000e+01     2.1587789000e-01
         H     6.2065183800e+00     9.6621292800e+00     1.8599785700e+00
         H     6.9444688200e+00     9.9528825300e+00     4.7409813300e+00
         H     1.2782056780e+01     7.9913525400e+00     1.8599942900e+00
         H     3.6894322000e-01     1.1623655880e+01     4.7409934400e+00
         H     5.8576274000e+00     1.1192408380e+01     2.6650991300e+00
         H     7.2933779600e+00     8.4225967200e+00     5.5460828000e+00
         H     1.2433180670e+01     1.0384078330e+01     2.6651489400e+00
         H     7.1780489000e-01     9.2309243800e+00     5.5461586100e+00
         H     4.1945234400e+00     1.1573972870e+01     1.1070621350e+01
         H     8.9564734000e+00     8.0410616900e+00     8.1896016400e+00
         H     1.0770069150e+01     1.0002465490e+01     1.1070678820e+01
         H     2.3809256500e+00     9.6125639500e+00     8.1896993600e+00
         H     4.9128483200e+00     9.7207871400e+00     8.8588473200e+00
         H     8.2381457400e+00     9.8942216900e+00     5.9778413900e+00
         H     1.1488400100e+01     7.9326960000e+00     8.8588690800e+00
         H     1.6625929700e+00     1.1682304000e+01     5.9778778900e+00
         H     6.2065183800e+00     9.6621292800e+00     7.6219785700e+00
         H     6.9444688200e+00     9.9528825300e+00     1.0502981330e+01
         H     1.2782056780e+01     7.9913525400e+00     7.6219942900e+00
         H     3.6894322000e-01     1.1623655880e+01     1.0502993440e+01
         H     5.8576274000e+00     1.1192408380e+01     8.4270991300e+00
         H     7.2933779600e+00     8.4225967200e+00     1.1308082800e+01
         H     1.2433180670e+01     1.0384078330e+01     8.4271489400e+00
         H     7.1780489000e-01     9.2309243800e+00     1.1308158610e+01
         H     4.1945234400e+00     1.5496972870e+01     5.3086213500e+00
         H     8.9564734000e+00     1.1964061690e+01     2.4276016400e+00
         H     1.0770069150e+01     1.3925465490e+01     5.3086788200e+00
         H     2.3809256500e+00     1.3535563950e+01     2.4276993600e+00
         H     4.9128483200e+00     1.3643787140e+01     3.0968473200e+00
         H     8.2381457400e+00     1.3817221690e+01     2.1584139000e-01
         H     1.1488400100e+01     1.1855696000e+01     3.0968690800e+00
         H     1.6625929700e+00     1.5605304000e+01     2.1587789000e-01
         H     6.2065183800e+00     1.3585129280e+01     1.8599785700e+00
         H     6.9444688200e+00     1.3875882530e+01     4.7409813300e+00
         H     1.2782056780e+01     1.1914352540e+01     1.8599942900e+00
         H     3.6894322000e-01     1.5546655880e+01     4.7409934400e+00
         H     5.8576274000e+00     1.5115408380e+01     2.6650991300e+00
         H     7.2933779600e+00     1.2345596720e+01     5.5460828000e+00
         H     1.2433180670e+01     1.4307078330e+01     2.6651489400e+00
         H     7.1780489000e-01     1.3153924380e+01     5.5461586100e+00
         H     4.1945234400e+00     1.5496972870e+01     1.1070621350e+01
         H     8.9564734000e+00     1.1964061690e+01     8.1896016400e+00
         H     1.0770069150e+01     1.3925465490e+01     1.1070678820e+01
         H     2.3809256500e+00     1.3535563950e+01     8.1896993600e+00
         H     4.9128483200e+00     1.3643787140e+01     8.8588473200e+00
         H     8.2381457400e+00     1.3817221690e+01     5.9778413900e+00
         H     1.1488400100e+01     1.1855696000e+01     8.8588690800e+00
         H     1.6625929700e+00     1.5605304000e+01     5.9778778900e+00
         H     6.2065183800e+00     1.3585129280e+01     7.6219785700e+00
         H     6.9444688200e+00     1.3875882530e+01     1.0502981330e+01
         H     1.2782056780e+01     1.1914352540e+01     7.6219942900e+00
         H     3.6894322000e-01     1.5546655880e+01     1.0502993440e+01
         H     5.8576274000e+00     1.5115408380e+01     8.4270991300e+00
         H     7.2933779600e+00     1.2345596720e+01     1.1308082800e+01
         H     1.2433180670e+01     1.4307078330e+01     8.4271489400e+00
         H     7.1780489000e-01     1.3153924380e+01     1.1308158610e+01
         O     4.9092228400e+00     3.4980676900e+00     2.3572895000e-01
         O     8.2417751600e+00     4.2495788000e-01     3.1167112000e+00
         O     1.1484745790e+01     2.3862981000e+00     2.3582311000e-01
         O     1.6662482400e+00     1.5367158000e+00     3.1168381500e+00
         O     3.2316162100e+00     2.3636999000e+00     1.1931369200e+00
         O     9.9193726500e+00     1.5593459100e+00     4.0741144000e+00
         O     9.8071801800e+00     3.5207944900e+00     1.1931558200e+00
         O     3.3438199500e+00     4.0223756000e-01     4.0741788200e+00
         O     4.9092228400e+00     3.4980676900e+00     5.9977289500e+00
         O     8.2417751600e+00     4.2495788000e-01     8.8787112000e+00
         O     1.1484745790e+01     2.3862981000e+00     5.9978231100e+00
         O     1.6662482400e+00     1.5367158000e+00     8.8788381500e+00
         O     3.2316162100e+00     2.3636999000e+00     6.9551369200e+00
         O     9.9193726500e+00     1.5593459100e+00     9.8361144000e+00
         O     9.8071801800e+00     3.5207944900e+00     6.9551558200e+00
         O     3.3438199500e+00     4.0223756000e-01     9.8361788200e+00
         O     4.9092228400e+00     7.4210676900e+00     2.3572895000e-01
         O     8.2417751600e+00     4.3479578800e+00     3.1167112000e+00
         O     1.1484745790e+01     6.3092981000e+00     2.3582311000e-01
         O     1.6662482400e+00     5.4597158000e+00     3.1168381500e+00
         O     3.2316162100e+00     6.2866999000e+00     1.1931369200e+00
         O     9.9193726500e+00     5.4823459100e+00     4.0741144000e+00
         O     9.8071801800e+00     7.4437944900e+00     1.1931558200e+00
         O     3.3438199500e+00     4.3252375600e+00     4.0741788200e+00
         O     4.9092228400e+00     7.4210676900e+00     5.9977289500e+00
         O     8.2417751600e+00     4.3479578800e+00     8.8787112000e+00
         O     1.1484745790e+01     6.3092981000e+00     5.9978231100e+00
         O     1.6662482400e+00     5.4597158000e+00     8.8788381500e+00
         O     3.2316162100e+00     6.2866999000e+00     6.9551369200e+00
         O     9.9193726500e+00     5.4823459100e+00     9.8361144000e+00
         O     9.8071801800e+00     7.4437944900e+00     6.9551558200e+00
         O     3.3438199500e+00     4.3252375600e+00     9.8361788200e+00
         O     4.9092228400e+00     1.1344067690e+01     2.3572895000e-01
         O     8.2417751600e+00     8.2709578800e+00     3.1167112000e+00
         O     1.1484745790e+01     1.0232298100e+01     2.3582311000e-01
         O     1.6662482400e+00     9.3827158000e+00     3.1168381500e+00
         O     3.2316162100e+00     1.0209699900e+01     1.1931369200e+00
         O     9.9193726500e+00     9.4053459100e+00     4.0741144000e+00
         O     9.8071801800e+00     1.1366794490e+01     1.1931558200e+00
         O     3.3438199500e+00     8.2482375600e+00     4.0741788200e+00
         O     4.9092228400e+00     1.1344067690e+01     5.9977289500e+00
         O     8.2417751600e+00     8.2709578800e+00     8.8787112000e+00
         O     1.1484745790e+01     1.0232298100e+01     5.9978231100e+00
         O     1.6662482400e+00     9.3827158000e+00     8.8788381500e+00
         O     3.2316162100e+00     1.0209699900e+01     6.9551369200e+00
         O     9.9193726500e+00     9.4053459100e+00     9.8361144000e+00
         O     9.8071801800e+00     1.1366794490e+01     6.9551558200e+00
         O     3.3438199500e+00     8.2482375600e+00     9.8361788200e+00
         O     4.9092228400e+00     1.5267067690e+01     2.3572895000e-01
         O     8.2417751600e+00     1.2193957880e+01     3.1167112000e+00
         O     1.1484745790e+01     1.4155298100e+01     2.3582311000e-01
         O     1.6662482400e+00     1.3305715800e+01     3.1168381500e+00
         O     3.2316162100e+00     1.4132699900e+01     1.1931369200e+00
         O     9.9193726500e+00     1.3328345910e+01     4.0741144000e+00
         O     9.8071801800e+00     1.5289794490e+01     1.1931558200e+00
         O     3.3438199500e+00     1.2171237560e+01     4.0741788200e+00
         O     4.9092228400e+00     1.5267067690e+01     5.9977289500e+00
         O     8.2417751600e+00     1.2193957880e+01     8.8787112000e+00
         O     1.1484745790e+01     1.4155298100e+01     5.9978231100e+00
         O     1.6662482400e+00     1.3305715800e+01     8.8788381500e+00
         O     3.2316162100e+00     1.4132699900e+01     6.9551369200e+00
         O     9.9193726500e+00     1.3328345910e+01     9.8361144000e+00
         O     9.8071801800e+00     1.5289794490e+01     6.9551558200e+00
         O     3.3438199500e+00     1.2171237560e+01     9.8361788200e+00
