12
# CELL(GENH):   25.00000    0.00000    0.00000    0.00000   25.00000    0.00000    0.00000    0.00000   25.00000 positions{angstrom} cell{angstrom}
         C     1.2915350000e+01     1.1168325000e+01     1.2479535000e+01
         C     1.2084670000e+01     1.3831725000e+01     1.2520475000e+01
         C     1.3499030000e+01     1.2067405000e+01     1.3372505000e+01
         C     1.1501000000e+01     1.2932615000e+01     1.1627505000e+01
         C     1.3083700000e+01     1.3399105000e+01     1.3392955000e+01
         C     1.1916350000e+01     1.1600875000e+01     1.1607015000e+01
         H     1.3239360000e+01     1.0129555000e+01     1.2463615000e+01
         H     1.1760660000e+01     1.4870445000e+01     1.2536405000e+01
         H     1.4278220000e+01     1.1729905000e+01     1.4053045000e+01
         H     1.0721780000e+01     1.3270115000e+01     1.0946965000e+01
         H     1.3538870000e+01     1.4100435000e+01     1.4089505000e+01
         H     1.1461130000e+01     1.0899565000e+01     1.0910495000e+01
