9
# CELL(GENH):   25.00000    0.00000    0.00000    0.00000   25.00000    0.00000    0.00000    0.00000   25.00000 positions{angstrom} cell{angstrom}
         C     1.1414840000e+01     1.1411485000e+01     1.2499870000e+01
         C     1.3289500000e+01     1.2648935000e+01     1.2499870000e+01
         C     1.1280500000e+01     1.3653705000e+01     1.2499930000e+01
         H     1.4378150000e+01     1.2714465000e+01     1.2499810000e+01
         H     1.0927020000e+01     1.0436005000e+01     1.2499790000e+01
         H     1.0679890000e+01     1.4563995000e+01     1.2499800000e+01
         N     1.2752830000e+01     1.1423245000e+01     1.2499880000e+01
         N     1.0621850000e+01     1.2489065000e+01     1.2499790000e+01
         N     1.2610210000e+01     1.3801795000e+01     1.2500210000e+01
