24
# CELL(GENH):   25.00000    0.00000    0.00000    0.00000   25.00000    0.00000    0.00000    0.00000   25.00000 positions{angstrom} cell{angstrom}
         C     9.7081450000e+00     1.0033895000e+01     1.2496970000e+01
         C     1.1078895000e+01     1.0034065000e+01     1.2501910000e+01
         C     1.1812115000e+01     1.1257135000e+01     1.2501170000e+01
         C     1.1079575000e+01     1.2503335000e+01     1.2495150000e+01
         C     9.6544250000e+00     1.2457595000e+01     1.2490260000e+01
         C     8.9876250000e+00     1.1259855000e+01     1.2491040000e+01
         C     1.3211325000e+01     1.1289725000e+01     1.2505870000e+01
         C     1.1788515000e+01     1.3710145000e+01     1.2494370000e+01
         C     1.3187845000e+01     1.3742735000e+01     1.2499040000e+01
         C     1.3920265000e+01     1.2496565000e+01     1.2504920000e+01
         C     1.5345465000e+01     1.2542385000e+01     1.2509670000e+01
         C     1.6012465000e+01     1.3740085000e+01     1.2508770000e+01
         C     1.5291765000e+01     1.4965955000e+01     1.2503030000e+01
         C     1.3920965000e+01     1.4965765000e+01     1.2498200000e+01
         H     1.5896365000e+01     1.1602765000e+01     1.2514230000e+01
         H     1.3763865000e+01     1.0349695000e+01     1.2510260000e+01
         H     9.1619550000e+00     9.0930650000e+00     1.2497380000e+01
         H     1.1632085000e+01     9.0958150000e+00     1.2506300000e+01
         H     9.1035750000e+00     1.3397195000e+01     1.2485770000e+01
         H     7.8998350000e+00     1.1240405000e+01     1.2487350000e+01
         H     1.1235875000e+01     1.4650215000e+01     1.2489970000e+01
         H     1.7100165000e+01     1.3759585000e+01     1.2512610000e+01
         H     1.5837865000e+01     1.5906935000e+01     1.2502580000e+01
         H     1.3367765000e+01     1.5903985000e+01     1.2494040000e+01
